@<TRIPOS>MOLECULE
1_000x
78   79    1
SMALL
USER_CHARGES


@<TRIPOS>ATOM
1    C        43.3341   -8.4341   37.4080  C.2   1 MOL         0.5000 
2    O        43.9447   -7.3785   37.5248  O.2   1 MOL        -0.5000 
3    CH3      43.8117   -9.4338   36.4826  C.3   1 MOL        -0.1800 
4    N        42.2391   -8.6988   38.1107  N.am  1 MOL        -0.5000 
5    CA       41.5622   -7.8313   39.0364  C.3   1 MOL         0.1400 
6    C        41.8912   -8.2391   40.3954  C.2   1 MOL         0.5000 
7    O        42.0136   -9.4305   40.6578  O.2   1 MOL        -0.5000 
8    CB       40.0255   -7.8784   38.7716  C.3   1 MOL        -0.0050 
9    CG       39.6098   -7.0188   37.6277  C.ar  1 MOL        -0.1150 
10   CD1      39.3576   -7.5668   36.3497  C.ar  1 MOL        -0.1150 
11   CD2      39.4655   -5.6225   37.7991  C.ar  1 MOL        -0.1150 
12   CE1      38.9939   -6.7416   35.2720  C.ar  1 MOL        -0.1150 
13   CE2      39.0998   -4.7972   36.7224  C.ar  1 MOL        -0.1150 
14   CZ       38.8888   -5.3455   35.4428  C.ar  1 MOL         0.1000 
15   OH       38.4976   -4.5405   34.4078  O.3   1 MOL        -0.2882 
16   P        39.6699   -4.1332   33.4668  P.3   1 MOL         1.2307 
17   O1P      39.8855   -5.1630   32.3385  O.3   1 MOL        -0.5682 
18   O2P      39.3255   -2.8805   32.8424  O.2   1 MOL        -0.6661 
19   O3P      40.9963   -3.9143   34.2265  O.3   1 MOL        -0.5682 
20   N        42.0368   -7.3137   41.3376  N.am  1 MOL        -0.5000 
21   CA       42.3826   -7.5200   42.7213  C.3   1 MOL         0.1400 
22   C        41.2262   -7.7816   43.5976  C.2   1 MOL         0.5000 
23   O        40.2964   -6.9914   43.4743  O.2   1 MOL        -0.5000 
24   CB       43.1678   -6.2600   43.2139  C.3   1 MOL        -0.1200 
25   CG       44.5036   -5.9431   42.4736  C.3   1 MOL        -0.1200 
26   CD       45.8007   -6.5321   43.0939  C.3   1 MOL         0.4700 
27   OE1      45.8341   -6.3355   44.5070  O.3   1 MOL        -0.6830 
28   OE2      45.9690   -7.9139   42.8060  O.3   1 MOL        -0.6830 
29   N1       41.1379   -8.7617   44.5255  N.am  1 MOL        -0.1400 
30   C2       42.2124   -9.6900   44.8534  C.3   1 MOL        -0.0500 
31   C6       39.9284   -8.9662   45.3193  C.3   1 MOL        -0.0500 
32   C3       42.6084   -9.5726   46.3493  C.3   1 MOL        -0.1200 
33   C4       41.3704   -9.6848   47.2759  C.3   1 MOL        -0.1200 
34   C5       40.2078   -8.7397   46.8394  C.3   1 MOL        -0.0600 
35   C1'      40.4394   -7.2249   47.1468  C.3   1 MOL        -0.1200 
36   C2'      40.5203   -6.8670   48.6571  C.3   1 MOL        -0.1200 
37   C3'      41.4934   -5.7037   48.9883  C.3   1 MOL        -0.1200 
38   C4'      40.8845   -4.2877   48.8593  C.3   1 MOL        -0.1800 
39   HH31     44.0059  -10.3664   37.0161  H     1 MOL         0.0600 
40   HH32     43.0524   -9.6164   35.7165  H     1 MOL         0.0600 
41   HH33     44.7346   -9.1190   35.9871  H     1 MOL         0.0600 
42   HN       41.8330   -9.5723   37.9682  H     1 MOL         0.3000 
43   HA       41.8859   -6.7935   38.8938  H     1 MOL         0.0600 
44   HB1      39.4902   -7.5452   39.6661  H     1 MOL         0.0600 
45   HB2      39.7243   -8.9162   38.5966  H     1 MOL         0.0600 
46   HD1      39.4436   -8.5737   36.1919  H     1 MOL         0.1150 
47   HD2      39.6210   -5.1979   38.7161  H     1 MOL         0.1150 
48   HE1      38.8118   -7.1568   34.3572  H     1 MOL         0.1150 
49   HE2      38.9892   -3.7928   36.8707  H     1 MOL         0.1150 
50   HO1P     39.0046   -5.5719   32.2008  H     1 MOL         0.3800 
51   HO3P     40.7237   -3.5794   35.1063  H     1 MOL         0.3800 
52   HN       41.9093   -6.3927   41.0577  H     1 MOL         0.3000 
53   HA       43.0312   -8.3940   42.7282  H     1 MOL         0.0600 
54   HB1      43.3844   -6.3336   44.2806  H     1 MOL         0.0600 
55   HB2      42.5106   -5.3915   43.0926  H     1 MOL         0.0600 
56   HG1      44.6261   -4.8556   42.4635  H     1 MOL         0.0600 
57   HG2      44.4385   -6.2633   41.4305  H     1 MOL         0.0600 
58   HD       46.6570   -6.0088   42.6662  H     1 MOL         0.0600 
59   HOE1     46.6274   -6.8191   44.8135  H     1 MOL         0.4180 
60   HOE2     45.3805   -8.3753   43.4342  H     1 MOL         0.4180 
61   H21      43.1223   -9.5604   44.2689  H     1 MOL         0.0600 
62   H22      41.8705  -10.7091   44.6551  H     1 MOL         0.0600 
63   H61      39.5805   -9.9926   45.1684  H     1 MOL         0.0600 
64   H62      39.0879   -8.3367   45.0213  H     1 MOL         0.0600 
65   H31      43.1013   -8.6136   46.5171  H     1 MOL         0.0600 
66   H32      43.3232  -10.3587   46.6016  H     1 MOL         0.0600 
67   H41      41.6706   -9.4911   48.3061  H     1 MOL         0.0600 
68   H42      41.0136  -10.7169   47.2435  H     1 MOL         0.0600 
69   H5       39.3072   -9.0482   47.3813  H     1 MOL         0.0600 
70   H1'1     39.6079   -6.6658   46.7179  H     1 MOL         0.0600 
71   H1'2     41.3494   -6.8787   46.6529  H     1 MOL         0.0600 
72   H2'1     40.8628   -7.7406   49.2098  H     1 MOL         0.0600 
73   H2'2     39.5244   -6.6118   49.0239  H     1 MOL         0.0600 
74   H3'1     42.3740   -5.7728   48.3444  H     1 MOL         0.0600 
75   H3'2     41.8330   -5.8249   50.0199  H     1 MOL         0.0600 
76   H4'1     41.6040   -3.5426   49.2106  H     1 MOL         0.0600 
77   H4'2     40.6413   -4.0605   47.8218  H     1 MOL         0.0600 
78   H4'3     39.9797   -4.2066   49.4658  H     1 MOL         0.0600 
@<TRIPOS>BOND
     1    1    2 2    
     2    1    3 1    
     3    1    4 am   BACKBONE|DICT|INTERRES
     4    3   39 1    
     5    3   40 1    
     6    3   41 1    
     7    4    5 1    
     8    4   42 1    
     9    5    8 1    
    10    5    6 1    
    11    5   43 1    
    12    6    7 2    
    13    6   20 am   BACKBONE|DICT|INTERRES
    14    8    9 1    
    15    8   44 1    
    16    8   45 1    
    17    9   11 ar   
    18    9   10 ar   
    19   10   12 ar   
    20   10   46 1    
    21   11   13 ar   
    22   11   47 1    
    23   12   14 ar   
    24   12   48 1    
    25   13   14 ar   
    26   13   49 1    
    27   14   15 1    
    28   15   16 1    
    29   16   19 1    
    30   16   18 2    
    31   16   17 1    
    32   17   50 1    
    33   19   51 1    
    34   20   21 1    
    35   20   52 1    
    36   21   22 1    
    37   21   24 1    
    38   21   53 1    
    39   22   23 2    
    40   22   29 am   BACKBONE|DICT|INTERRES
    41   24   25 1    
    42   24   54 1    
    43   24   55 1    
    44   25   26 1    
    45   25   56 1    
    46   25   57 1    
    47   26   27 1    
    48   26   28 1    
    49   26   58 1    
    50   27   59 1    
    51   28   60 1    
    52   29   31 1    
    53   29   30 1    
    54   30   32 1    
    55   30   61 1    
    56   30   62 1    
    57   31   34 1    
    58   31   63 1    
    59   31   64 1    
    60   32   33 1    
    61   32   65 1    
    62   32   66 1    
    63   33   34 1    
    64   33   67 1    
    65   33   68 1    
    66   34   35 1    
    67   34   69 1    
    68   35   36 1    
    69   35   70 1    
    70   35   71 1    
    71   36   37 1    
    72   36   72 1    
    73   36   73 1    
    74   37   38 1    
    75   37   74 1    
    76   37   75 1    
    77   38   76 1    
    78   38   77 1    
    79   38   78 1    
@<TRIPOS>SUBSTRUCTURE
     1 MOL         1 GROUP             0       ****    0 ROOT    
