@<TRIPOS>MOLECULE
1_0012
78   79    1
SMALL
USER_CHARGES


@<TRIPOS>ATOM
1    C        38.2399   -7.6390   40.7776  C.2   1 MOL         0.5000 
2    O        38.4141   -6.6222   41.4412  O.2   1 MOL        -0.5000 
3    CH3      36.9248   -8.2513   40.6937  C.3   1 MOL        -0.1800 
4    N        39.2250   -8.2015   40.0857  N.am  1 MOL        -0.5000 
5    CA       40.6085   -7.8108   40.0147  C.3   1 MOL         0.1400 
6    C        41.3456   -8.2395   41.2101  C.2   1 MOL         0.5000 
7    O        41.2449   -9.4213   41.5190  O.2   1 MOL        -0.5000 
8    CB       40.7978   -6.3219   39.5715  C.3   1 MOL        -0.0050 
9    CG       40.1333   -5.8903   38.3006  C.ar  1 MOL        -0.1150 
10   CD1      39.6720   -4.5599   38.1527  C.ar  1 MOL        -0.1150 
11   CD2      40.0375   -6.7548   37.1803  C.ar  1 MOL        -0.1150 
12   CE1      39.1535   -4.1051   36.9290  C.ar  1 MOL        -0.1150 
13   CE2      39.4831   -6.3080   35.9625  C.ar  1 MOL        -0.1150 
14   CZ       39.0782   -4.9629   35.8158  C.ar  1 MOL         0.1000 
15   OH       38.4923   -4.4992   34.6678  O.3   1 MOL        -0.2882 
16   P        39.3831   -4.5382   33.3927  P.3   1 MOL         1.2307 
17   O1P      39.8839   -5.9521   33.0584  O.3   1 MOL        -0.5682 
18   O2P      38.5575   -4.1174   32.2941  O.2   1 MOL        -0.6661 
19   O3P      40.5891   -3.5851   33.4518  O.3   1 MOL        -0.5682 
20   N        42.1785   -7.4508   41.8919  N.am  1 MOL        -0.5000 
21   CA       43.0067   -7.8173   43.0240  C.3   1 MOL         0.1400 
22   C        44.0786   -8.7607   42.6461  C.2   1 MOL         0.5000 
23   O        43.9360   -9.9116   43.0382  O.2   1 MOL        -0.5000 
24   CB       42.1183   -8.2266   44.2494  C.3   1 MOL        -0.1200 
25   CG       41.3485   -7.0336   44.8799  C.3   1 MOL        -0.1200 
26   CD       40.1500   -7.4253   45.7809  C.3   1 MOL         0.4700 
27   OE1      38.9832   -7.7039   45.0058  O.3   1 MOL        -0.6830 
28   OE2      40.4357   -8.5432   46.6211  O.3   1 MOL        -0.6830 
29   N1       45.1929   -8.4378   41.9491  N.am  1 MOL        -0.1400 
30   C2       45.3955   -7.1571   41.2913  C.3   1 MOL        -0.0500 
31   C6       46.3266   -9.3585   41.8208  C.3   1 MOL        -0.0500 
32   C3       46.6530   -6.4381   41.8388  C.3   1 MOL        -0.1200 
33   C4       47.8944   -7.3558   41.7327  C.3   1 MOL        -0.1200 
34   C5       47.6462   -8.7452   42.4039  C.3   1 MOL        -0.0600 
35   C1'      47.6586   -8.6631   43.9737  C.3   1 MOL        -0.1200 
36   C2'      48.5365   -9.7093   44.7183  C.3   1 MOL        -0.1200 
37   C3'      50.0810   -9.6459   44.5103  C.3   1 MOL        -0.1200 
38   C4'      50.6883   -8.2264   44.3697  C.3   1 MOL        -0.1800 
39   HH31     36.6034   -8.2871   39.6490  H     1 MOL         0.0600 
40   HH32     36.9723   -9.2696   41.0882  H     1 MOL         0.0600 
41   HH33     36.1862   -7.6870   41.2679  H     1 MOL         0.0600 
42   HN       38.9883   -8.9825   39.5580  H     1 MOL         0.3000 
43   HA       41.0419   -8.4119   39.2112  H     1 MOL         0.0600 
44   HB1      41.8664   -6.1368   39.4271  H     1 MOL         0.0600 
45   HB2      40.4573   -5.6812   40.3856  H     1 MOL         0.0600 
46   HD1      39.7356   -3.9027   38.9324  H     1 MOL         0.1150 
47   HD2      40.3676   -7.7231   37.2375  H     1 MOL         0.1150 
48   HE1      38.8308   -3.1399   36.8463  H     1 MOL         0.1150 
49   HE2      39.3997   -6.9575   35.1789  H     1 MOL         0.1150 
50   HO1P     39.2901   -6.2536   32.3338  H     1 MOL         0.3800 
51   HO3P     40.5173   -3.0700   32.6227  H     1 MOL         0.3800 
52   HN       42.2468   -6.5239   41.6018  H     1 MOL         0.3000 
53   HA       43.5134   -6.9064   43.3550  H     1 MOL         0.0600 
54   HB1      42.7573   -8.6612   45.0291  H     1 MOL         0.0600 
55   HB2      41.4119   -9.0066   43.9474  H     1 MOL         0.0600 
56   HG1      40.9702   -6.3717   44.0967  H     1 MOL         0.0600 
57   HG2      42.0598   -6.4545   45.4783  H     1 MOL         0.0600 
58   HD       39.9107   -6.5809   46.4271  H     1 MOL         0.0600 
59   HOE1     39.2270   -8.4345   44.3993  H     1 MOL         0.4180 
60   HOE2     40.3977   -9.3276   46.0332  H     1 MOL         0.4180 
61   H21      44.5634   -6.4612   41.3783  H     1 MOL         0.0600 
62   H22      45.5278   -7.3312   40.2195  H     1 MOL         0.0600 
63   H61      46.4762   -9.5744   40.7544  H     1 MOL         0.0600 
64   H62      46.1723  -10.3306   42.2988  H     1 MOL         0.0600 
65   H31      46.4892   -6.1619   42.8845  H     1 MOL         0.0600 
66   H32      46.8318   -5.5225   41.2692  H     1 MOL         0.0600 
67   H41      48.7532   -6.8533   42.1889  H     1 MOL         0.0600 
68   H42      48.1365   -7.5050   40.6738  H     1 MOL         0.0600 
69   H5       48.4685   -9.3941   42.0867  H     1 MOL         0.0600 
70   H1'1     46.6305   -8.7707   44.3433  H     1 MOL         0.0600 
71   H1'2     47.9838   -7.6765   44.3010  H     1 MOL         0.0600 
72   H2'1     48.1935  -10.7119   44.4409  H     1 MOL         0.0600 
73   H2'2     48.3398   -9.5905   45.7883  H     1 MOL         0.0600 
74   H3'1     50.3579  -10.2269   43.6263  H     1 MOL         0.0600 
75   H3'2     50.5534  -10.1283   45.3723  H     1 MOL         0.0600 
76   H4'1     51.7777   -8.2693   44.4934  H     1 MOL         0.0600 
77   H4'2     50.4781   -7.8311   43.3724  H     1 MOL         0.0600 
78   H4'3     50.2764   -7.5495   45.1235  H     1 MOL         0.0600 
@<TRIPOS>BOND
     1    1    2 2    
     2    1    3 1    
     3    1    4 am   BACKBONE|DICT|INTERRES
     4    3   39 1    
     5    3   40 1    
     6    3   41 1    
     7    4    5 1    
     8    4   42 1    
     9    5    8 1    
    10    5    6 1    
    11    5   43 1    
    12    6    7 2    
    13    6   20 am   BACKBONE|DICT|INTERRES
    14    8    9 1    
    15    8   44 1    
    16    8   45 1    
    17    9   11 ar   
    18    9   10 ar   
    19   10   12 ar   
    20   10   46 1    
    21   11   13 ar   
    22   11   47 1    
    23   12   14 ar   
    24   12   48 1    
    25   13   14 ar   
    26   13   49 1    
    27   14   15 1    
    28   15   16 1    
    29   16   19 1    
    30   16   18 2    
    31   16   17 1    
    32   17   50 1    
    33   19   51 1    
    34   20   21 1    
    35   20   52 1    
    36   21   22 1    
    37   21   24 1    
    38   21   53 1    
    39   22   23 2    
    40   22   29 am   BACKBONE|DICT|INTERRES
    41   24   25 1    
    42   24   54 1    
    43   24   55 1    
    44   25   26 1    
    45   25   56 1    
    46   25   57 1    
    47   26   27 1    
    48   26   28 1    
    49   26   58 1    
    50   27   59 1    
    51   28   60 1    
    52   29   31 1    
    53   29   30 1    
    54   30   32 1    
    55   30   61 1    
    56   30   62 1    
    57   31   34 1    
    58   31   63 1    
    59   31   64 1    
    60   32   33 1    
    61   32   65 1    
    62   32   66 1    
    63   33   34 1    
    64   33   67 1    
    65   33   68 1    
    66   34   35 1    
    67   34   69 1    
    68   35   36 1    
    69   35   70 1    
    70   35   71 1    
    71   36   37 1    
    72   36   72 1    
    73   36   73 1    
    74   37   38 1    
    75   37   74 1    
    76   37   75 1    
    77   38   76 1    
    78   38   77 1    
    79   38   78 1    
@<TRIPOS>SUBSTRUCTURE
     1 MOL         1 GROUP             0       ****    0 ROOT    
@<TRIPOS>PROPERTY_DATA
  Total_Score	| 7.5593
  Crash		| -1.2649
  Polar		| 6.5535

