@<TRIPOS>MOLECULE
1_0004
78   79    1
SMALL
USER_CHARGES


@<TRIPOS>ATOM
1    C        43.4882   -8.3258   37.7713  C.2   1 MOL         0.5000 
2    O        44.0255   -7.2292   37.6599  O.2   1 MOL        -0.5000 
3    CH3      43.9619   -9.4042   36.9306  C.3   1 MOL        -0.1800 
4    N        42.5036   -8.5477   38.6317  N.am  1 MOL        -0.5000 
5    CA       41.9488   -7.6157   39.5785  C.3   1 MOL         0.1400 
6    C        42.0783   -8.1119   40.9434  C.2   1 MOL         0.5000 
7    O        42.0773   -9.3166   41.1843  O.2   1 MOL        -0.5000 
8    CB       40.4419   -7.3221   39.3201  C.3   1 MOL        -0.0050 
9    CG       40.1119   -6.5814   38.0719  C.ar  1 MOL        -0.1150 
10   CD1      39.2414   -7.1502   37.1137  C.ar  1 MOL        -0.1150 
11   CD2      40.5384   -5.2453   37.8843  C.ar  1 MOL        -0.1150 
12   CE1      38.8147   -6.4105   35.9950  C.ar  1 MOL        -0.1150 
13   CE2      40.1236   -4.5103   36.7550  C.ar  1 MOL        -0.1150 
14   CZ       39.2696   -5.0893   35.7950  C.ar  1 MOL         0.1000 
15   OH       38.7219   -4.3363   34.7947  O.3   1 MOL        -0.2882 
16   P        39.4463   -4.3894   33.4169  P.3   1 MOL         1.2307 
17   O1P      39.9060   -5.7994   32.9878  O.3   1 MOL        -0.5682 
18   O2P      38.4774   -3.9361   32.4562  O.2   1 MOL        -0.6661 
19   O3P      40.6360   -3.4145   33.3268  O.3   1 MOL        -0.5682 
20   N        41.9932   -7.2153   41.9155  N.am  1 MOL        -0.5000 
21   CA       41.9639   -7.3719   43.3354  C.3   1 MOL         0.1400 
22   C        43.0199   -8.2903   43.8140  C.2   1 MOL         0.5000 
23   O        42.6410   -9.1368   44.6178  O.2   1 MOL        -0.5000 
24   CB       40.4866   -7.6517   43.8112  C.3   1 MOL        -0.1200 
25   CG       39.3895   -6.6612   43.2829  C.3   1 MOL        -0.1200 
26   CD       38.6788   -5.6702   44.2699  C.3   1 MOL         0.4700 
27   OE1      37.2868   -5.9564   44.3790  O.3   1 MOL        -0.6830 
28   OE2      39.2257   -5.6159   45.5859  O.3   1 MOL        -0.6830 
29   N1       44.3336   -8.2564   43.4805  N.am  1 MOL        -0.1400 
30   C2       44.9244   -7.3211   42.5221  C.3   1 MOL        -0.0500 
31   C6       45.3008   -9.1980   44.0517  C.3   1 MOL        -0.0500 
32   C3       46.1165   -6.5322   43.1201  C.3   1 MOL        -0.1200 
33   C4       47.1288   -7.4811   43.8069  C.3   1 MOL        -0.1200 
34   C5       46.4186   -8.4306   44.8234  C.3   1 MOL        -0.0600 
35   C1'      45.8199   -7.7316   46.0917  C.3   1 MOL        -0.1200 
36   C2'      46.8199   -6.9414   46.9748  C.3   1 MOL        -0.1200 
37   C3'      46.1554   -6.3962   48.2674  C.3   1 MOL        -0.1200 
38   C4'      47.0335   -5.3437   48.9771  C.3   1 MOL        -0.1800 
39   HH31     44.3585  -10.2063   37.5559  H     1 MOL         0.0600 
40   HH32     43.1451   -9.7994   36.3229  H     1 MOL         0.0600 
41   HH33     44.7585   -9.0727   36.2570  H     1 MOL         0.0600 
42   HN       42.1273   -9.4430   38.6374  H     1 MOL         0.3000 
43   HA       42.4921   -6.6644   39.5160  H     1 MOL         0.0600 
44   HB1      40.0330   -6.7137   40.1374  H     1 MOL         0.0600 
45   HB2      39.9098   -8.2805   39.3469  H     1 MOL         0.0600 
46   HD1      38.8681   -8.0936   37.2491  H     1 MOL         0.1150 
47   HD2      41.1219   -4.7890   38.5921  H     1 MOL         0.1150 
48   HE1      38.1504   -6.8286   35.3391  H     1 MOL         0.1150 
49   HE2      40.4307   -3.5394   36.6447  H     1 MOL         0.1150 
50   HO1P     39.2355   -6.0888   32.3327  H     1 MOL         0.3800 
51   HO3P     40.4943   -2.9369   32.4793  H     1 MOL         0.3800 
52   HN       41.9617   -6.2913   41.6197  H     1 MOL         0.3000 
53   HA       42.2195   -6.3872   43.7404  H     1 MOL         0.0600 
54   HB1      40.4856   -7.6564   44.9014  H     1 MOL         0.0600 
55   HB2      40.2197   -8.6621   43.4895  H     1 MOL         0.0600 
56   HG1      38.6091   -7.2532   42.8015  H     1 MOL         0.0600 
57   HG2      39.8262   -6.0616   42.4795  H     1 MOL         0.0600 
58   HD       38.7447   -4.6542   43.8643  H     1 MOL         0.0600 
59   HOE1     37.2336   -6.8759   44.7133  H     1 MOL         0.4180 
60   HOE2     38.9242   -6.4353   46.0342  H     1 MOL         0.4180 
61   H21      44.2359   -6.5710   42.1435  H     1 MOL         0.0600 
62   H22      45.2795   -7.8907   41.6571  H     1 MOL         0.0600 
63   H61      45.7428   -9.7846   43.2385  H     1 MOL         0.0600 
64   H62      44.8702   -9.9324   44.7384  H     1 MOL         0.0600 
65   H31      45.7414   -5.8099   43.8488  H     1 MOL         0.0600 
66   H32      46.6284   -5.9742   42.3307  H     1 MOL         0.0600 
67   H41      47.9149   -6.8986   44.2928  H     1 MOL         0.0600 
68   H42      47.6231   -8.0871   43.0374  H     1 MOL         0.0600 
69   H5       47.1610   -9.1593   45.1653  H     1 MOL         0.0600 
70   H1'1     45.3523   -8.5038   46.7097  H     1 MOL         0.0600 
71   H1'2     45.0306   -7.0387   45.7916  H     1 MOL         0.0600 
72   H2'1     47.2024   -6.0919   46.4039  H     1 MOL         0.0600 
73   H2'2     47.6615   -7.5870   47.2410  H     1 MOL         0.0600 
74   H3'1     45.9601   -7.2245   48.9545  H     1 MOL         0.0600 
75   H3'2     45.1983   -5.9293   48.0184  H     1 MOL         0.0600 
76   H4'1     46.5264   -4.9784   49.8720  H     1 MOL         0.0600 
77   H4'2     47.9922   -5.7777   49.2676  H     1 MOL         0.0600 
78   H4'3     47.2127   -4.4983   48.3102  H     1 MOL         0.0600 
@<TRIPOS>BOND
     1    1    2 2    
     2    1    3 1    
     3    1    4 am   BACKBONE|DICT|INTERRES
     4    3   39 1    
     5    3   40 1    
     6    3   41 1    
     7    4    5 1    
     8    4   42 1    
     9    5    8 1    
    10    5    6 1    
    11    5   43 1    
    12    6    7 2    
    13    6   20 am   BACKBONE|DICT|INTERRES
    14    8    9 1    
    15    8   44 1    
    16    8   45 1    
    17    9   11 ar   
    18    9   10 ar   
    19   10   12 ar   
    20   10   46 1    
    21   11   13 ar   
    22   11   47 1    
    23   12   14 ar   
    24   12   48 1    
    25   13   14 ar   
    26   13   49 1    
    27   14   15 1    
    28   15   16 1    
    29   16   19 1    
    30   16   18 2    
    31   16   17 1    
    32   17   50 1    
    33   19   51 1    
    34   20   21 1    
    35   20   52 1    
    36   21   22 1    
    37   21   24 1    
    38   21   53 1    
    39   22   23 2    
    40   22   29 am   BACKBONE|DICT|INTERRES
    41   24   25 1    
    42   24   54 1    
    43   24   55 1    
    44   25   26 1    
    45   25   56 1    
    46   25   57 1    
    47   26   27 1    
    48   26   28 1    
    49   26   58 1    
    50   27   59 1    
    51   28   60 1    
    52   29   31 1    
    53   29   30 1    
    54   30   32 1    
    55   30   61 1    
    56   30   62 1    
    57   31   34 1    
    58   31   63 1    
    59   31   64 1    
    60   32   33 1    
    61   32   65 1    
    62   32   66 1    
    63   33   34 1    
    64   33   67 1    
    65   33   68 1    
    66   34   35 1    
    67   34   69 1    
    68   35   36 1    
    69   35   70 1    
    70   35   71 1    
    71   36   37 1    
    72   36   72 1    
    73   36   73 1    
    74   37   38 1    
    75   37   74 1    
    76   37   75 1    
    77   38   76 1    
    78   38   77 1    
    79   38   78 1    
@<TRIPOS>SUBSTRUCTURE
     1 MOL         1 GROUP             0       ****    0 ROOT    
@<TRIPOS>PROPERTY_DATA
  Total_Score	| 8.1645
  Crash		| -1.1971
  Polar		| 6.8119

