@<TRIPOS>MOLECULE
1_0007
78   79    1
SMALL
USER_CHARGES


@<TRIPOS>ATOM
1    C        43.9555   -8.4699   38.2635  C.2   1 MOL         0.5000 
2    O        44.0072   -7.5616   37.4412  O.2   1 MOL        -0.5000 
3    CH3      45.0009   -9.4673   38.2925  C.3   1 MOL        -0.1800 
4    N        42.9658   -8.5712   39.1448  N.am  1 MOL        -0.5000 
5    CA       41.8876   -7.6334   39.3628  C.3   1 MOL         0.1400 
6    C        41.6601   -7.3639   40.7799  C.2   1 MOL         0.5000 
7    O        40.7336   -6.6118   41.0624  O.2   1 MOL        -0.5000 
8    CB       40.5635   -8.1305   38.6671  C.3   1 MOL        -0.0050 
9    CG       39.9815   -7.2013   37.6517  C.ar  1 MOL        -0.1150 
10   CD1      39.4826   -7.6930   36.4210  C.ar  1 MOL        -0.1150 
11   CD2      39.8497   -5.8150   37.9227  C.ar  1 MOL        -0.1150 
12   CE1      38.9027   -6.8217   35.4811  C.ar  1 MOL        -0.1150 
13   CE2      39.2954   -4.9391   36.9773  C.ar  1 MOL        -0.1150 
14   CZ       38.8443   -5.4347   35.7403  C.ar  1 MOL         0.1000 
15   OH       38.2991   -4.5704   34.8321  O.3   1 MOL        -0.2882 
16   P        39.2658   -4.1050   33.7062  P.3   1 MOL         1.2307 
17   O1P      39.1742   -2.5781   33.6342  O.3   1 MOL        -0.5682 
18   O2P      40.6448   -4.5207   33.7888  O.2   1 MOL        -0.6661 
19   O3P      38.6455   -4.5980   32.3913  O.3   1 MOL        -0.5682 
20   N        42.3743   -7.9237   41.7602  N.am  1 MOL        -0.5000 
21   CA       42.2048   -7.7610   43.1897  C.3   1 MOL         0.1400 
22   C        40.8800   -8.2152   43.6810  C.2   1 MOL         0.5000 
23   O        40.0530   -8.4660   42.8092  O.2   1 MOL        -0.5000 
24   CB       42.5833   -6.3034   43.6367  C.3   1 MOL        -0.1200 
25   CG       43.9341   -5.7528   43.0792  C.3   1 MOL        -0.1200 
26   CD       45.2108   -6.1268   43.8880  C.3   1 MOL         0.4700 
27   OE1      45.0931   -7.3525   44.6054  O.3   1 MOL        -0.6830 
28   OE2      46.3308   -6.2437   43.0149  O.3   1 MOL        -0.6830 
29   N1       40.5211   -8.4332   44.9701  N.am  1 MOL        -0.1400 
30   C2       41.4032   -8.2657   46.1162  C.3   1 MOL        -0.0500 
31   C6       39.1644   -8.8425   45.3358  C.3   1 MOL        -0.0500 
32   C3       40.8417   -7.1806   47.0731  C.3   1 MOL        -0.1200 
33   C4       39.3770   -7.5063   47.4710  C.3   1 MOL        -0.1200 
34   C5       38.4622   -7.7772   46.2324  C.3   1 MOL        -0.0600 
35   C1'      38.0687   -6.4637   45.4684  C.3   1 MOL        -0.1200 
36   C2'      36.6292   -6.4034   44.8662  C.3   1 MOL        -0.1200 
37   C3'      36.4688   -6.9220   43.4123  C.3   1 MOL        -0.1200 
38   C4'      35.0422   -6.7043   42.8579  C.3   1 MOL        -0.1800 
39   HH31     45.5031   -9.4431   39.2624  H     1 MOL         0.0600 
40   HH32     44.5683  -10.4597   38.1459  H     1 MOL         0.0600 
41   HH33     45.7478   -9.2970   37.5117  H     1 MOL         0.0600 
42   HN       42.9727   -9.3684   39.6992  H     1 MOL         0.3000 
43   HA       42.1947   -6.6746   38.9278  H     1 MOL         0.0600 
44   HB1      39.7741   -8.2993   39.4028  H     1 MOL         0.0600 
45   HB2      40.7424   -9.1069   38.2140  H     1 MOL         0.0600 
46   HD1      39.5165   -8.6910   36.2068  H     1 MOL         0.1150 
47   HD2      40.1630   -5.4214   38.8094  H     1 MOL         0.1150 
48   HE1      38.5418   -7.1900   34.5968  H     1 MOL         0.1150 
49   HE2      39.2322   -3.9411   37.1832  H     1 MOL         0.1150 
50   HO1P     39.1812   -2.2804   34.5679  H     1 MOL         0.3800 
51   HO3P     39.0663   -5.4717   32.2291  H     1 MOL         0.3800 
52   HN       43.1038   -8.5026   41.4887  H     1 MOL         0.3000 
53   HA       42.9293   -8.4548   43.6114  H     1 MOL         0.0600 
54   HB1      42.6213   -6.2281   44.7174  H     1 MOL         0.0600 
55   HB2      41.7901   -5.6272   43.3252  H     1 MOL         0.0600 
56   HG1      43.8739   -4.6565   43.0611  H     1 MOL         0.0600 
57   HG2      44.0684   -6.0678   42.0400  H     1 MOL         0.0600 
58   HD       45.4174   -5.3334   44.6091  H     1 MOL         0.0600 
59   HOE1     45.9273   -7.4210   45.1084  H     1 MOL         0.4180 
60   HOE2     46.1545   -7.0556   42.4856  H     1 MOL         0.4180 
61   H21      42.4299   -8.0127   45.8679  H     1 MOL         0.0600 
62   H22      41.4673   -9.2140   46.6574  H     1 MOL         0.0600 
63   H61      39.2254   -9.7863   45.8837  H     1 MOL         0.0600 
64   H62      38.5218   -9.0626   44.4894  H     1 MOL         0.0600 
65   H31      40.8796   -6.2042   46.5828  H     1 MOL         0.0600 
66   H32      41.4609   -7.1273   47.9723  H     1 MOL         0.0600 
67   H41      38.9751   -6.6915   48.0790  H     1 MOL         0.0600 
68   H42      39.3861   -8.3972   48.1078  H     1 MOL         0.0600 
69   H5       37.5453   -8.2237   46.6231  H     1 MOL         0.0600 
70   H1'1     38.7982   -6.2411   44.6837  H     1 MOL         0.0600 
71   H1'2     38.1230   -5.6285   46.1726  H     1 MOL         0.0600 
72   H2'1     36.3114   -5.3529   44.8794  H     1 MOL         0.0600 
73   H2'2     35.9389   -6.9494   45.5182  H     1 MOL         0.0600 
74   H3'1     36.6808   -7.9877   43.3763  H     1 MOL         0.0600 
75   H3'2     37.1767   -6.4034   42.7632  H     1 MOL         0.0600 
76   H4'1     34.9839   -7.0785   41.8338  H     1 MOL         0.0600 
77   H4'2     34.3103   -7.2390   43.4664  H     1 MOL         0.0600 
78   H4'3     34.7900   -5.6409   42.8527  H     1 MOL         0.0600 
@<TRIPOS>BOND
     1    1    2 2    
     2    1    3 1    
     3    1    4 am   BACKBONE|DICT|INTERRES
     4    3   39 1    
     5    3   40 1    
     6    3   41 1    
     7    4    5 1    
     8    4   42 1    
     9    5    8 1    
    10    5    6 1    
    11    5   43 1    
    12    6    7 2    
    13    6   20 am   BACKBONE|DICT|INTERRES
    14    8    9 1    
    15    8   44 1    
    16    8   45 1    
    17    9   11 ar   
    18    9   10 ar   
    19   10   12 ar   
    20   10   46 1    
    21   11   13 ar   
    22   11   47 1    
    23   12   14 ar   
    24   12   48 1    
    25   13   14 ar   
    26   13   49 1    
    27   14   15 1    
    28   15   16 1    
    29   16   19 1    
    30   16   18 2    
    31   16   17 1    
    32   17   50 1    
    33   19   51 1    
    34   20   21 1    
    35   20   52 1    
    36   21   22 1    
    37   21   24 1    
    38   21   53 1    
    39   22   23 2    
    40   22   29 am   BACKBONE|DICT|INTERRES
    41   24   25 1    
    42   24   54 1    
    43   24   55 1    
    44   25   26 1    
    45   25   56 1    
    46   25   57 1    
    47   26   27 1    
    48   26   28 1    
    49   26   58 1    
    50   27   59 1    
    51   28   60 1    
    52   29   31 1    
    53   29   30 1    
    54   30   32 1    
    55   30   61 1    
    56   30   62 1    
    57   31   34 1    
    58   31   63 1    
    59   31   64 1    
    60   32   33 1    
    61   32   65 1    
    62   32   66 1    
    63   33   34 1    
    64   33   67 1    
    65   33   68 1    
    66   34   35 1    
    67   34   69 1    
    68   35   36 1    
    69   35   70 1    
    70   35   71 1    
    71   36   37 1    
    72   36   72 1    
    73   36   73 1    
    74   37   38 1    
    75   37   74 1    
    76   37   75 1    
    77   38   76 1    
    78   38   77 1    
    79   38   78 1    
@<TRIPOS>SUBSTRUCTURE
     1 MOL         1 GROUP             0       ****    0 ROOT    
@<TRIPOS>PROPERTY_DATA
  Total_Score	| 7.6877
  Crash		| -1.6406
  Polar		| 6.4390

