@<TRIPOS>MOLECULE
1_0008
78   79    1
SMALL
USER_CHARGES


@<TRIPOS>ATOM
1    C        43.4277   -8.2896   37.6128  C.2   1 MOL         0.5000 
2    O        44.1818   -7.3258   37.6335  O.2   1 MOL        -0.5000 
3    CH3      43.6305   -9.3238   36.6256  C.3   1 MOL        -0.1800 
4    N        42.4344   -8.4258   38.4821  N.am  1 MOL        -0.5000 
5    CA       42.1024   -7.5309   39.5622  C.3   1 MOL         0.1400 
6    C        42.6530   -8.0082   40.8284  C.2   1 MOL         0.5000 
7    O        43.0476   -9.1637   40.9425  O.2   1 MOL        -0.5000 
8    CB       40.5550   -7.3581   39.6445  C.3   1 MOL        -0.0050 
9    CG       39.9884   -6.6572   38.4552  C.ar  1 MOL        -0.1150 
10   CD1      39.5466   -7.3867   37.3278  C.ar  1 MOL        -0.1150 
11   CD2      39.8840   -5.2458   38.4264  C.ar  1 MOL        -0.1150 
12   CE1      39.0175   -6.7269   36.2048  C.ar  1 MOL        -0.1150 
13   CE2      39.3583   -4.5849   37.2971  C.ar  1 MOL        -0.1150 
14   CZ       38.9480   -5.3199   36.1617  C.ar  1 MOL         0.1000 
15   OH       38.3916   -4.6677   35.0895  O.3   1 MOL        -0.2882 
16   P        39.3423   -4.4931   33.8652  P.3   1 MOL         1.2307 
17   O1P      39.8075   -5.8254   33.2365  O.3   1 MOL        -0.5682 
18   O2P      38.5973   -3.7894   32.8543  O.2   1 MOL        -0.6661 
19   O3P      40.5700   -3.6239   34.2052  O.3   1 MOL        -0.5682 
20   N        42.7561   -7.1555   41.8426  N.am  1 MOL        -0.5000 
21   CA       43.3943   -7.3573   43.1198  C.3   1 MOL         0.1400 
22   C        42.3548   -7.3682   44.1630  C.2   1 MOL         0.5000 
23   O        41.6722   -6.3477   44.1650  O.2   1 MOL        -0.5000 
24   CB       44.4577   -6.2263   43.3285  C.3   1 MOL        -0.1200 
25   CG       45.4609   -6.4724   44.5016  C.3   1 MOL        -0.1200 
26   CD       46.8326   -7.0589   44.0658  C.3   1 MOL         0.4700 
27   OE1      47.7479   -7.0447   45.1568  O.3   1 MOL        -0.6830 
28   OE2      46.7095   -8.3964   43.5968  O.3   1 MOL        -0.6830 
29   N1       42.0373   -8.3435   45.0469  N.am  1 MOL        -0.1400 
30   C2       42.6925   -9.6427   45.1461  C.3   1 MOL        -0.0500 
31   C6       40.9676   -8.1636   46.0314  C.3   1 MOL        -0.0500 
32   C3       43.3343   -9.8238   46.5454  C.3   1 MOL        -0.1200 
33   C4       42.2934   -9.5909   47.6684  C.3   1 MOL        -0.1200 
34   C5       41.5286   -8.2438   47.4836  C.3   1 MOL        -0.0600 
35   C1'      42.4148   -7.0141   47.8752  C.3   1 MOL        -0.1200 
36   C2'      41.6657   -5.6934   48.2194  C.3   1 MOL        -0.1200 
37   C3'      40.6615   -5.7217   49.4094  C.3   1 MOL        -0.1200 
38   C4'      41.0126   -6.6541   50.5965  C.3   1 MOL        -0.1800 
39   HH31     43.7941  -10.2835   37.1200  H     1 MOL         0.0600 
40   HH32     42.7471   -9.3971   35.9877  H     1 MOL         0.0600 
41   HH33     44.4976   -9.1124   35.9943  H     1 MOL         0.0600 
42   HN       41.9159   -9.2446   38.4243  H     1 MOL         0.3000 
43   HA       42.5375   -6.5447   39.3597  H     1 MOL         0.0600 
44   HB1      40.2894   -6.7951   40.5451  H     1 MOL         0.0600 
45   HB2      40.0934   -8.3451   39.7549  H     1 MOL         0.0600 
46   HD1      39.6042   -8.4088   37.3151  H     1 MOL         0.1150 
47   HD2      40.1727   -4.6909   39.2360  H     1 MOL         0.1150 
48   HE1      38.6857   -7.2770   35.4088  H     1 MOL         0.1150 
49   HE2      39.2680   -3.5673   37.3016  H     1 MOL         0.1150 
50   HO1P     39.1876   -5.9982   32.4906  H     1 MOL         0.3800 
51   HO3P     40.6676   -3.6840   35.1820  H     1 MOL         0.3800 
52   HN       42.4028   -6.2669   41.6828  H     1 MOL         0.3000 
53   HA       43.9631   -8.2821   43.0872  H     1 MOL         0.0600 
54   HB1      43.9497   -5.2747   43.4950  H     1 MOL         0.0600 
55   HB2      45.0229   -6.0997   42.3979  H     1 MOL         0.0600 
56   HG1      45.0187   -7.1230   45.2605  H     1 MOL         0.0600 
57   HG2      45.6504   -5.5133   44.9858  H     1 MOL         0.0600 
58   HD       47.2612   -6.4538   43.2640  H     1 MOL         0.0600 
59   HOE1     48.5615   -7.4708   44.8115  H     1 MOL         0.4180 
60   HOE2     46.6700   -8.9422   44.4087  H     1 MOL         0.4180 
61   H21      43.4735   -9.8419   44.4200  H     1 MOL         0.0600 
62   H22      41.9440  -10.4272   44.9937  H     1 MOL         0.0600 
63   H61      40.2234   -8.9565   45.8985  H     1 MOL         0.0600 
64   H62      40.4039   -7.2325   45.9362  H     1 MOL         0.0600 
65   H31      44.1636   -9.1179   46.6562  H     1 MOL         0.0600 
66   H32      43.7337  -10.8373   46.6326  H     1 MOL         0.0600 
67   H41      42.7882   -9.6246   48.6438  H     1 MOL         0.0600 
68   H42      41.5668  -10.4083   47.6495  H     1 MOL         0.0600 
69   H5       40.6628   -8.2790   48.1462  H     1 MOL         0.0600 
70   H1'1     43.1065   -6.8043   47.0541  H     1 MOL         0.0600 
71   H1'2     43.0372   -7.2687   48.7341  H     1 MOL         0.0600 
72   H2'1     41.1319   -5.3428   47.3296  H     1 MOL         0.0600 
73   H2'2     42.4249   -4.9372   48.4374  H     1 MOL         0.0600 
74   H3'1     39.6743   -5.9991   49.0334  H     1 MOL         0.0600 
75   H3'2     40.5776   -4.7006   49.8016  H     1 MOL         0.0600 
76   H4'1     40.3630   -6.4253   51.4473  H     1 MOL         0.0600 
77   H4'2     40.8592   -7.7015   50.3361  H     1 MOL         0.0600 
78   H4'3     42.0524   -6.5154   50.8979  H     1 MOL         0.0600 
@<TRIPOS>BOND
     1    1    2 2    
     2    1    3 1    
     3    1    4 am   BACKBONE|DICT|INTERRES
     4    3   39 1    
     5    3   40 1    
     6    3   41 1    
     7    4    5 1    
     8    4   42 1    
     9    5    8 1    
    10    5    6 1    
    11    5   43 1    
    12    6    7 2    
    13    6   20 am   BACKBONE|DICT|INTERRES
    14    8    9 1    
    15    8   44 1    
    16    8   45 1    
    17    9   11 ar   
    18    9   10 ar   
    19   10   12 ar   
    20   10   46 1    
    21   11   13 ar   
    22   11   47 1    
    23   12   14 ar   
    24   12   48 1    
    25   13   14 ar   
    26   13   49 1    
    27   14   15 1    
    28   15   16 1    
    29   16   19 1    
    30   16   18 2    
    31   16   17 1    
    32   17   50 1    
    33   19   51 1    
    34   20   21 1    
    35   20   52 1    
    36   21   22 1    
    37   21   24 1    
    38   21   53 1    
    39   22   23 2    
    40   22   29 am   BACKBONE|DICT|INTERRES
    41   24   25 1    
    42   24   54 1    
    43   24   55 1    
    44   25   26 1    
    45   25   56 1    
    46   25   57 1    
    47   26   27 1    
    48   26   28 1    
    49   26   58 1    
    50   27   59 1    
    51   28   60 1    
    52   29   31 1    
    53   29   30 1    
    54   30   32 1    
    55   30   61 1    
    56   30   62 1    
    57   31   34 1    
    58   31   63 1    
    59   31   64 1    
    60   32   33 1    
    61   32   65 1    
    62   32   66 1    
    63   33   34 1    
    64   33   67 1    
    65   33   68 1    
    66   34   35 1    
    67   34   69 1    
    68   35   36 1    
    69   35   70 1    
    70   35   71 1    
    71   36   37 1    
    72   36   72 1    
    73   36   73 1    
    74   37   38 1    
    75   37   74 1    
    76   37   75 1    
    77   38   76 1    
    78   38   77 1    
    79   38   78 1    
@<TRIPOS>SUBSTRUCTURE
     1 MOL         1 GROUP             0       ****    0 ROOT    
@<TRIPOS>PROPERTY_DATA
  Total_Score	| 7.6551
  Crash		| -1.1695
  Polar		| 6.2564

