@<TRIPOS>MOLECULE
1_0010
78   79    1
SMALL
USER_CHARGES


@<TRIPOS>ATOM
1    C        43.5930   -8.5904   37.3708  C.2   1 MOL         0.5000 
2    O        44.2045   -7.5288   37.4327  O.2   1 MOL        -0.5000 
3    CH3      44.0605   -9.6277   36.4839  C.3   1 MOL        -0.1800 
4    N        42.5416   -8.8382   38.1405  N.am  1 MOL        -0.5000 
5    CA       41.9426   -7.9538   39.1054  C.3   1 MOL         0.1400 
6    C        42.2687   -8.3912   40.4581  C.2   1 MOL         0.5000 
7    O        42.3932   -9.5861   40.7244  O.2   1 MOL        -0.5000 
8    CB       40.3938   -7.9143   38.9108  C.3   1 MOL        -0.0050 
9    CG       39.9412   -7.0585   37.7755  C.ar  1 MOL        -0.1150 
10   CD1      39.0897   -7.5761   36.7597  C.ar  1 MOL        -0.1150 
11   CD2      40.2671   -5.6823   37.7419  C.ar  1 MOL        -0.1150 
12   CE1      38.5876   -6.7362   35.7527  C.ar  1 MOL        -0.1150 
13   CE2      39.7509   -4.8408   36.7382  C.ar  1 MOL        -0.1150 
14   CZ       38.9282   -5.3715   35.7187  C.ar  1 MOL         0.1000 
15   OH       38.3603   -4.5556   34.7836  O.3   1 MOL        -0.2882 
16   P        39.3320   -4.0279   33.6919  P.3   1 MOL         1.2307 
17   O1P      39.3731   -2.5027   33.8735  O.3   1 MOL        -0.5682 
18   O2P      40.6874   -4.5241   33.7173  O.2   1 MOL        -0.6661 
19   O3P      38.6769   -4.2560   32.3170  O.3   1 MOL        -0.5682 
20   N        42.3177   -7.4749   41.4186  N.am  1 MOL        -0.5000 
21   CA       42.5665   -7.6832   42.8222  C.3   1 MOL         0.1400 
22   C        41.4592   -8.3977   43.4903  C.2   1 MOL         0.5000 
23   O        40.3479   -8.0894   43.0697  O.2   1 MOL        -0.5000 
24   CB       42.7863   -6.2847   43.4923  C.3   1 MOL        -0.1200 
25   CG       44.1304   -5.6038   43.0973  C.3   1 MOL        -0.1200 
26   CD       45.3581   -6.0460   43.9455  C.3   1 MOL         0.4700 
27   OE1      45.1342   -7.2465   44.6932  O.3   1 MOL        -0.6830 
28   OE2      46.4998   -6.2734   43.1093  O.3   1 MOL        -0.6830 
29   N1       41.5512   -9.1889   44.5883  N.am  1 MOL        -0.1400 
30   C2       42.7929   -9.5758   45.2502  C.3   1 MOL        -0.0500 
31   C6       40.3586   -9.6841   45.2766  C.3   1 MOL        -0.0500 
32   C3       42.8448   -9.0067   46.6955  C.3   1 MOL        -0.1200 
33   C4       41.5562   -9.3685   47.4895  C.3   1 MOL        -0.1200 
34   C5       40.2463   -9.0384   46.6976  C.3   1 MOL        -0.0600 
35   C1'      39.8932   -7.5062   46.6133  C.3   1 MOL        -0.1200 
36   C2'      39.1913   -6.8682   47.8502  C.3   1 MOL        -0.1200 
37   C3'      40.0972   -6.4996   49.0689  C.3   1 MOL        -0.1200 
38   C4'      39.8625   -7.3875   50.3137  C.3   1 MOL        -0.1800 
39   HH31     44.3165  -10.5203   37.0596  H     1 MOL         0.0600 
40   HH32     43.2717   -9.8784   35.7720  H     1 MOL         0.0600 
41   HH33     44.9462   -9.3112   35.9256  H     1 MOL         0.0600 
42   HN       42.1497   -9.7257   38.0597  H     1 MOL         0.3000 
43   HA       42.3257   -6.9319   38.9744  H     1 MOL         0.0600 
44   HB1      39.9048   -7.5189   39.8095  H     1 MOL         0.0600 
45   HB2      40.0236   -8.9382   38.7914  H     1 MOL         0.0600 
46   HD1      38.8169   -8.5639   36.7666  H     1 MOL         0.1150 
47   HD2      40.8643   -5.2758   38.4772  H     1 MOL         0.1150 
48   HE1      37.9738   -7.1218   35.0306  H     1 MOL         0.1150 
49   HE2      39.9960   -3.8455   36.7420  H     1 MOL         0.1150 
50   HO1P     39.1345   -2.3646   34.8157  H     1 MOL         0.3800 
51   HO3P     39.4259   -4.3898   31.6947  H     1 MOL         0.3800 
52   HN       42.1974   -6.5480   41.1386  H     1 MOL         0.3000 
53   HA       43.4906   -8.2601   42.8687  H     1 MOL         0.0600 
54   HB1      42.7404   -6.3753   44.5818  H     1 MOL         0.0600 
55   HB2      41.9640   -5.6305   43.1936  H     1 MOL         0.0600 
56   HG1      44.0183   -4.5257   43.2085  H     1 MOL         0.0600 
57   HG2      44.3420   -5.7884   42.0427  H     1 MOL         0.0600 
58   HD       45.6085   -5.2484   44.6601  H     1 MOL         0.0600 
59   HOE1     46.0339   -7.5106   45.0030  H     1 MOL         0.4180 
60   HOE2     46.3547   -7.1621   42.7228  H     1 MOL         0.4180 
61   H21      43.7030   -9.2557   44.7397  H     1 MOL         0.0600 
62   H22      42.8376  -10.6767   45.3004  H     1 MOL         0.0600 
63   H61      40.4285  -10.7730   45.3779  H     1 MOL         0.0600 
64   H62      39.4204   -9.5040   44.7383  H     1 MOL         0.0600 
65   H31      42.9615   -7.9185   46.6531  H     1 MOL         0.0600 
66   H32      43.7155   -9.4210   47.2159  H     1 MOL         0.0600 
67   H41      41.5700   -8.8570   48.4542  H     1 MOL         0.0600 
68   H42      41.5735  -10.4453   47.6941  H     1 MOL         0.0600 
69   H5       39.4152   -9.5401   47.2095  H     1 MOL         0.0600 
70   H1'1     39.1956   -7.3698   45.7821  H     1 MOL         0.0600 
71   H1'2     40.7829   -6.9219   46.3599  H     1 MOL         0.0600 
72   H2'1     38.3674   -7.5172   48.1630  H     1 MOL         0.0600 
73   H2'2     38.7304   -5.9384   47.4996  H     1 MOL         0.0600 
74   H3'1     39.8890   -5.4632   49.3626  H     1 MOL         0.0600 
75   H3'2     41.1543   -6.5339   48.7899  H     1 MOL         0.0600 
76   H4'1     40.5491   -7.0955   51.1084  H     1 MOL         0.0600 
77   H4'2     38.8406   -7.2634   50.6742  H     1 MOL         0.0600 
78   H4'3     40.0294   -8.4367   50.0703  H     1 MOL         0.0600 
@<TRIPOS>BOND
     1    1    2 2    
     2    1    3 1    
     3    1    4 am   BACKBONE|DICT|INTERRES
     4    3   39 1    
     5    3   40 1    
     6    3   41 1    
     7    4    5 1    
     8    4   42 1    
     9    5    8 1    
    10    5    6 1    
    11    5   43 1    
    12    6    7 2    
    13    6   20 am   BACKBONE|DICT|INTERRES
    14    8    9 1    
    15    8   44 1    
    16    8   45 1    
    17    9   11 ar   
    18    9   10 ar   
    19   10   12 ar   
    20   10   46 1    
    21   11   13 ar   
    22   11   47 1    
    23   12   14 ar   
    24   12   48 1    
    25   13   14 ar   
    26   13   49 1    
    27   14   15 1    
    28   15   16 1    
    29   16   19 1    
    30   16   18 2    
    31   16   17 1    
    32   17   50 1    
    33   19   51 1    
    34   20   21 1    
    35   20   52 1    
    36   21   22 1    
    37   21   24 1    
    38   21   53 1    
    39   22   23 2    
    40   22   29 am   BACKBONE|DICT|INTERRES
    41   24   25 1    
    42   24   54 1    
    43   24   55 1    
    44   25   26 1    
    45   25   56 1    
    46   25   57 1    
    47   26   27 1    
    48   26   28 1    
    49   26   58 1    
    50   27   59 1    
    51   28   60 1    
    52   29   31 1    
    53   29   30 1    
    54   30   32 1    
    55   30   61 1    
    56   30   62 1    
    57   31   34 1    
    58   31   63 1    
    59   31   64 1    
    60   32   33 1    
    61   32   65 1    
    62   32   66 1    
    63   33   34 1    
    64   33   67 1    
    65   33   68 1    
    66   34   35 1    
    67   34   69 1    
    68   35   36 1    
    69   35   70 1    
    70   35   71 1    
    71   36   37 1    
    72   36   72 1    
    73   36   73 1    
    74   37   38 1    
    75   37   74 1    
    76   37   75 1    
    77   38   76 1    
    78   38   77 1    
    79   38   78 1    
@<TRIPOS>SUBSTRUCTURE
     1 MOL         1 GROUP             0       ****    0 ROOT    
@<TRIPOS>PROPERTY_DATA
  Total_Score	| 7.5738
  Crash		| -1.1876
  Polar		| 6.5609

