@<TRIPOS>MOLECULE
1_0005
78   79    1
SMALL
USER_CHARGES


@<TRIPOS>ATOM
1    C        43.5969   -8.3851   37.6524  C.2   1 MOL         0.5000 
2    O        44.2187   -7.3256   37.6366  O.2   1 MOL        -0.5000 
3    CH3      43.9783   -9.4307   36.7330  C.3   1 MOL        -0.1800 
4    N        42.5941   -8.5945   38.4979  N.am  1 MOL        -0.5000 
5    CA       42.0479   -7.6684   39.4581  C.3   1 MOL         0.1400 
6    C        42.2589   -8.1566   40.8202  C.2   1 MOL         0.5000 
7    O        42.0507   -9.3409   41.0714  O.2   1 MOL        -0.5000 
8    CB       40.5202   -7.4453   39.2244  C.3   1 MOL        -0.0050 
9    CG       40.1598   -6.6723   38.0041  C.ar  1 MOL        -0.1150 
10   CD1      39.2531   -7.1963   37.0479  C.ar  1 MOL        -0.1150 
11   CD2      40.6143   -5.3444   37.8381  C.ar  1 MOL        -0.1150 
12   CE1      38.7961   -6.4074   35.9743  C.ar  1 MOL        -0.1150 
13   CE2      40.1628   -4.5583   36.7606  C.ar  1 MOL        -0.1150 
14   CZ       39.2562   -5.0854   35.8175  C.ar  1 MOL         0.1000 
15   OH       38.7092   -4.2998   34.8433  O.3   1 MOL        -0.2882 
16   P        39.4196   -4.4111   33.4662  P.3   1 MOL         1.2307 
17   O1P      39.8311   -5.8464   33.0815  O.3   1 MOL        -0.5682 
18   O2P      38.4762   -3.9535   32.4748  O.2   1 MOL        -0.6661 
19   O3P      40.6419   -3.4860   33.3580  O.3   1 MOL        -0.5682 
20   N        42.5385   -7.2911   41.7868  N.am  1 MOL        -0.5000 
21   CA       42.5753   -7.5439   43.2006  C.3   1 MOL         0.1400 
22   C        41.2226   -7.4735   43.7948  C.2   1 MOL         0.5000 
23   O        40.5676   -6.5093   43.4009  O.2   1 MOL        -0.5000 
24   CB       43.5014   -6.4946   43.9028  C.3   1 MOL        -0.1200 
25   CG       45.0312   -6.7193   43.7848  C.3   1 MOL        -0.1200 
26   CD       45.6372   -6.5085   42.3733  C.3   1 MOL         0.4700 
27   OE1      46.9982   -6.0990   42.4697  O.3   1 MOL        -0.6830 
28   OE2      45.5910   -7.6999   41.5909  O.3   1 MOL        -0.6830 
29   N1       40.7190   -8.2320   44.7991  N.am  1 MOL        -0.1400 
30   C2       41.3082   -9.4748   45.2907  C.3   1 MOL        -0.0500 
31   C6       39.5544   -7.7953   45.5697  C.3   1 MOL        -0.0500 
32   C3       41.7986   -9.2890   46.7545  C.3   1 MOL        -0.1200 
33   C4       40.6430   -8.7642   47.6522  C.3   1 MOL        -0.1200 
34   C5       39.9636   -7.4877   47.0495  C.3   1 MOL        -0.0600 
35   C1'      40.8182   -6.1746   47.1325  C.3   1 MOL        -0.1200 
36   C2'      41.6319   -5.9374   48.4403  C.3   1 MOL        -0.1200 
37   C3'      40.7884   -5.9806   49.7565  C.3   1 MOL        -0.1200 
38   C4'      41.4695   -6.7991   50.8773  C.3   1 MOL        -0.1800 
39   HH31     44.2704  -10.3269   37.2844  H     1 MOL         0.0600 
40   HH32     43.1366   -9.6754   36.0817  H     1 MOL         0.0600 
41   HH33     44.8193   -9.1286   36.1042  H     1 MOL         0.0600 
42   HN       42.1776   -9.4706   38.4659  H     1 MOL         0.3000 
43   HA       42.5376   -6.6904   39.3525  H     1 MOL         0.0600 
44   HB1      40.1096   -6.8936   40.0759  H     1 MOL         0.0600 
45   HB2      40.0310   -8.4227   39.2143  H     1 MOL         0.0600 
46   HD1      38.8826   -8.1483   37.1522  H     1 MOL         0.1150 
47   HD2      41.2397   -4.9247   38.5256  H     1 MOL         0.1150 
48   HE1      38.1094   -6.7912   35.3238  H     1 MOL         0.1150 
49   HE2      40.4832   -3.5884   36.6749  H     1 MOL         0.1150 
50   HO1P     39.2320   -6.0814   32.3377  H     1 MOL         0.3800 
51   HO3P     40.5186   -3.0434   32.4891  H     1 MOL         0.3800 
52   HN       42.6975   -6.3778   41.5100  H     1 MOL         0.3000 
53   HA       43.0471   -8.5146   43.3485  H     1 MOL         0.0600 
54   HB1      43.2952   -6.4952   44.9770  H     1 MOL         0.0600 
55   HB2      43.2593   -5.4926   43.5343  H     1 MOL         0.0600 
56   HG1      45.2744   -7.7281   44.1304  H     1 MOL         0.0600 
57   HG2      45.5122   -6.0148   44.4688  H     1 MOL         0.0600 
58   HD       45.0870   -5.7226   41.8521  H     1 MOL         0.0600 
59   HOE1     47.3931   -6.6644   43.1676  H     1 MOL         0.4180 
60   HOE2     46.2611   -8.2968   41.9907  H     1 MOL         0.4180 
61   H21      42.1292   -9.8642   44.6967  H     1 MOL         0.0600 
62   H22      40.5394  -10.2555   45.2641  H     1 MOL         0.0600 
63   H61      38.8053   -8.5897   45.5632  H     1 MOL         0.0600 
64   H62      39.0542   -6.9093   45.1685  H     1 MOL         0.0600 
65   H31      42.6403   -8.5874   46.7734  H     1 MOL         0.0600 
66   H32      42.1536  -10.2465   47.1406  H     1 MOL         0.0600 
67   H41      41.0153   -8.5468   48.6613  H     1 MOL         0.0600 
68   H42      39.8834   -9.5596   47.7342  H     1 MOL         0.0600 
69   H5       39.0409   -7.3261   47.6101  H     1 MOL         0.0600 
70   H1'1     40.1647   -5.3098   46.9819  H     1 MOL         0.0600 
71   H1'2     41.5382   -6.1819   46.3120  H     1 MOL         0.0600 
72   H2'1     42.0797   -4.9355   48.3666  H     1 MOL         0.0600 
73   H2'2     42.4489   -6.6701   48.4658  H     1 MOL         0.0600 
74   H3'1     39.7950   -6.4093   49.5802  H     1 MOL         0.0600 
75   H3'2     40.6417   -4.9581   50.1210  H     1 MOL         0.0600 
76   H4'1     40.9102   -6.6877   51.8106  H     1 MOL         0.0600 
77   H4'2     41.4850   -7.8589   50.6035  H     1 MOL         0.0600 
78   H4'3     42.4969   -6.4630   51.0392  H     1 MOL         0.0600 
@<TRIPOS>BOND
     1    1    2 2    
     2    1    3 1    
     3    1    4 am   BACKBONE|DICT|INTERRES
     4    3   39 1    
     5    3   40 1    
     6    3   41 1    
     7    4    5 1    
     8    4   42 1    
     9    5    8 1    
    10    5    6 1    
    11    5   43 1    
    12    6    7 2    
    13    6   20 am   BACKBONE|DICT|INTERRES
    14    8    9 1    
    15    8   44 1    
    16    8   45 1    
    17    9   11 ar   
    18    9   10 ar   
    19   10   12 ar   
    20   10   46 1    
    21   11   13 ar   
    22   11   47 1    
    23   12   14 ar   
    24   12   48 1    
    25   13   14 ar   
    26   13   49 1    
    27   14   15 1    
    28   15   16 1    
    29   16   19 1    
    30   16   18 2    
    31   16   17 1    
    32   17   50 1    
    33   19   51 1    
    34   20   21 1    
    35   20   52 1    
    36   21   22 1    
    37   21   24 1    
    38   21   53 1    
    39   22   23 2    
    40   22   29 am   BACKBONE|DICT|INTERRES
    41   24   25 1    
    42   24   54 1    
    43   24   55 1    
    44   25   26 1    
    45   25   56 1    
    46   25   57 1    
    47   26   27 1    
    48   26   28 1    
    49   26   58 1    
    50   27   59 1    
    51   28   60 1    
    52   29   31 1    
    53   29   30 1    
    54   30   32 1    
    55   30   61 1    
    56   30   62 1    
    57   31   34 1    
    58   31   63 1    
    59   31   64 1    
    60   32   33 1    
    61   32   65 1    
    62   32   66 1    
    63   33   34 1    
    64   33   67 1    
    65   33   68 1    
    66   34   35 1    
    67   34   69 1    
    68   35   36 1    
    69   35   70 1    
    70   35   71 1    
    71   36   37 1    
    72   36   72 1    
    73   36   73 1    
    74   37   38 1    
    75   37   74 1    
    76   37   75 1    
    77   38   76 1    
    78   38   77 1    
    79   38   78 1    
@<TRIPOS>SUBSTRUCTURE
     1 MOL         1 GROUP             0       ****    0 ROOT    
@<TRIPOS>PROPERTY_DATA
  Total_Score	| 8.0288
  Crash		| -1.1406
  Polar		| 6.9205

