@<TRIPOS>MOLECULE
1_0009
78   79    1
SMALL
USER_CHARGES


@<TRIPOS>ATOM
1    C        43.4895   -8.4621   37.6331  C.2   1 MOL         0.5000 
2    O        44.0763   -7.3937   37.5503  O.2   1 MOL        -0.5000 
3    CH3      43.9357   -9.5752   36.8298  C.3   1 MOL        -0.1800 
4    N        42.4781   -8.6461   38.4709  N.am  1 MOL        -0.5000 
5    CA       41.9324   -7.6984   39.4057  C.3   1 MOL         0.1400 
6    C        42.1456   -8.1734   40.7627  C.2   1 MOL         0.5000 
7    O        41.8989   -9.3386   41.0583  O.2   1 MOL        -0.5000 
8    CB       40.4055   -7.4942   39.1668  C.3   1 MOL        -0.0050 
9    CG       40.0714   -6.7143   37.9450  C.ar  1 MOL        -0.1150 
10   CD1      39.1712   -7.2177   36.9764  C.ar  1 MOL        -0.1150 
11   CD2      40.5572   -5.3929   37.7926  C.ar  1 MOL        -0.1150 
12   CE1      38.7494   -6.4142   35.9011  C.ar  1 MOL        -0.1150 
13   CE2      40.1299   -4.5873   36.7211  C.ar  1 MOL        -0.1150 
14   CZ       39.2324   -5.0991   35.7597  C.ar  1 MOL         0.1000 
15   OH       38.7086   -4.2997   34.7813  O.3   1 MOL        -0.2882 
16   P        39.4338   -4.4169   33.4099  P.3   1 MOL         1.2307 
17   O1P      39.8636   -5.8485   33.0185  O.3   1 MOL        -0.5682 
18   O2P      38.4926   -3.9501   32.4247  O.2   1 MOL        -0.6661 
19   O3P      40.6499   -3.4747   33.3466  O.3   1 MOL        -0.5682 
20   N        42.4663   -7.2933   41.7072  N.am  1 MOL        -0.5000 
21   CA       42.6304   -7.5824   43.1068  C.3   1 MOL         0.1400 
22   C        41.3542   -7.8363   43.7985  C.2   1 MOL         0.5000 
23   O        40.4454   -7.0920   43.4331  O.2   1 MOL        -0.5000 
24   CB       43.3608   -6.3926   43.8172  C.3   1 MOL        -0.1200 
25   CG       44.7091   -5.9090   43.1911  C.3   1 MOL        -0.1200 
26   CD       45.6800   -7.0289   42.7111  C.3   1 MOL         0.4700 
27   OE1      46.7254   -6.4683   41.9166  O.3   1 MOL        -0.6830 
28   OE2      46.2530   -7.7521   43.8073  O.3   1 MOL        -0.6830 
29   N1       41.1454   -8.6707   44.8416  N.am  1 MOL        -0.1400 
30   C2       42.1648   -9.5217   45.4467  C.3   1 MOL        -0.0500 
31   C6       39.8388   -8.7584   45.4956  C.3   1 MOL        -0.0500 
32   C3       42.3607   -9.1767   46.9472  C.3   1 MOL        -0.1200 
33   C4       41.0071   -9.1788   47.7069  C.3   1 MOL        -0.1200 
34   C5       39.9256   -8.3122   46.9876  C.3   1 MOL        -0.0600 
35   C1'      40.1057   -6.7625   47.1133  C.3   1 MOL        -0.1200 
36   C2'      40.1224   -6.2106   48.5729  C.3   1 MOL        -0.1200 
37   C3'      41.5407   -6.0211   49.2051  C.3   1 MOL        -0.1200 
38   C4'      41.7088   -6.7281   50.5775  C.3   1 MOL        -0.1800 
39   HH31     44.2351  -10.4000   37.4756  H     1 MOL         0.0600 
40   HH32     43.1275   -9.9116   36.1827  H     1 MOL         0.0600 
41   HH33     44.7869   -9.3039   36.2031  H     1 MOL         0.0600 
42   HN       42.0893   -9.5318   38.4825  H     1 MOL         0.3000 
43   HA       42.4269   -6.7286   39.2964  H     1 MOL         0.0600 
44   HB1      39.9727   -6.9512   40.0151  H     1 MOL         0.0600 
45   HB2      39.9221   -8.4726   39.1451  H     1 MOL         0.0600 
46   HD1      38.7960   -8.1642   37.0673  H     1 MOL         0.1150 
47   HD2      41.1943   -4.9866   38.4838  H     1 MOL         0.1150 
48   HE1      38.0669   -6.7858   35.2346  H     1 MOL         0.1150 
49   HE2      40.4628   -3.6224   36.6434  H     1 MOL         0.1150 
50   HO1P     39.2503   -6.1029   32.2986  H     1 MOL         0.3800 
51   HO3P     40.5523   -3.0135   32.4887  H     1 MOL         0.3800 
52   HN       42.6026   -6.3706   41.4289  H     1 MOL         0.3000 
53   HA       43.2984   -8.4451   43.1553  H     1 MOL         0.0600 
54   HB1      43.5634   -6.6666   44.8635  H     1 MOL         0.0600 
55   HB2      42.6963   -5.5197   43.8329  H     1 MOL         0.0600 
56   HG1      45.2356   -5.3039   43.9456  H     1 MOL         0.0600 
57   HG2      44.4940   -5.2468   42.3363  H     1 MOL         0.0600 
58   HD       45.1318   -7.7319   42.0779  H     1 MOL         0.0600 
59   HOE1     47.2717   -5.9766   42.5626  H     1 MOL         0.4180 
60   HOE2     46.7519   -7.0802   44.3203  H     1 MOL         0.4180 
61   H21      43.1492   -9.4655   44.9780  H     1 MOL         0.0600 
62   H22      41.8343  -10.5645   45.3603  H     1 MOL         0.0600 
63   H61      39.4993   -9.7965   45.4604  H     1 MOL         0.0600 
64   H62      39.0465   -8.1800   45.0107  H     1 MOL         0.0600 
65   H31      42.8386   -8.1962   47.0283  H     1 MOL         0.0600 
66   H32      43.0350   -9.9143   47.3965  H     1 MOL         0.0600 
67   H41      41.1725   -8.8411   48.7332  H     1 MOL         0.0600 
68   H42      40.6520  -10.2194   47.7525  H     1 MOL         0.0600 
69   H5       38.9684   -8.5557   47.4563  H     1 MOL         0.0600 
70   H1'1     39.2534   -6.2972   46.6109  H     1 MOL         0.0600 
71   H1'2     41.0014   -6.4310   46.5807  H     1 MOL         0.0600 
72   H2'1     39.5112   -6.8621   49.2055  H     1 MOL         0.0600 
73   H2'2     39.6304   -5.2325   48.5830  H     1 MOL         0.0600 
74   H3'1     41.7386   -4.9489   49.3411  H     1 MOL         0.0600 
75   H3'2     42.3208   -6.4029   48.5398  H     1 MOL         0.0600 
76   H4'1     42.7087   -6.5087   50.9861  H     1 MOL         0.0600 
77   H4'2     40.9402   -6.3777   51.2857  H     1 MOL         0.0600 
78   H4'3     41.6098   -7.8145   50.4465  H     1 MOL         0.0600 
@<TRIPOS>BOND
     1    1    2 2    
     2    1    3 1    
     3    1    4 am   BACKBONE|DICT|INTERRES
     4    3   39 1    
     5    3   40 1    
     6    3   41 1    
     7    4    5 1    
     8    4   42 1    
     9    5    8 1    
    10    5    6 1    
    11    5   43 1    
    12    6    7 2    
    13    6   20 am   BACKBONE|DICT|INTERRES
    14    8    9 1    
    15    8   44 1    
    16    8   45 1    
    17    9   11 ar   
    18    9   10 ar   
    19   10   12 ar   
    20   10   46 1    
    21   11   13 ar   
    22   11   47 1    
    23   12   14 ar   
    24   12   48 1    
    25   13   14 ar   
    26   13   49 1    
    27   14   15 1    
    28   15   16 1    
    29   16   19 1    
    30   16   18 2    
    31   16   17 1    
    32   17   50 1    
    33   19   51 1    
    34   20   21 1    
    35   20   52 1    
    36   21   22 1    
    37   21   24 1    
    38   21   53 1    
    39   22   23 2    
    40   22   29 am   BACKBONE|DICT|INTERRES
    41   24   25 1    
    42   24   54 1    
    43   24   55 1    
    44   25   26 1    
    45   25   56 1    
    46   25   57 1    
    47   26   27 1    
    48   26   28 1    
    49   26   58 1    
    50   27   59 1    
    51   28   60 1    
    52   29   31 1    
    53   29   30 1    
    54   30   32 1    
    55   30   61 1    
    56   30   62 1    
    57   31   34 1    
    58   31   63 1    
    59   31   64 1    
    60   32   33 1    
    61   32   65 1    
    62   32   66 1    
    63   33   34 1    
    64   33   67 1    
    65   33   68 1    
    66   34   35 1    
    67   34   69 1    
    68   35   36 1    
    69   35   70 1    
    70   35   71 1    
    71   36   37 1    
    72   36   72 1    
    73   36   73 1    
    74   37   38 1    
    75   37   74 1    
    76   37   75 1    
    77   38   76 1    
    78   38   77 1    
    79   38   78 1    
@<TRIPOS>SUBSTRUCTURE
     1 MOL         1 GROUP             0       ****    0 ROOT    
@<TRIPOS>PROPERTY_DATA
  Total_Score	| 7.5893
  Crash		| -1.2764
  Polar		| 6.8473

