@<TRIPOS>MOLECULE
1_0001
78   79    1
SMALL
USER_CHARGES


@<TRIPOS>ATOM
1    C        43.7353   -8.4563   37.5230  C.2   1 MOL         0.5000 
2    O        44.1662   -7.3102   37.5678  O.2   1 MOL        -0.5000 
3    CH3      44.4105   -9.4324   36.7015  C.3   1 MOL        -0.1800 
4    N        42.6764   -8.8403   38.2303  N.am  1 MOL        -0.5000 
5    CA       41.8535   -8.0418   39.0954  C.3   1 MOL         0.1400 
6    C        42.1003   -8.3874   40.4873  C.2   1 MOL         0.5000 
7    O        42.2304   -9.5647   40.8151  O.2   1 MOL        -0.5000 
8    CB       40.3432   -8.2518   38.7414  C.3   1 MOL        -0.0050 
9    CG       39.8337   -7.3057   37.7091  C.ar  1 MOL        -0.1150 
10   CD1      39.3822   -7.7541   36.4457  C.ar  1 MOL        -0.1150 
11   CD2      39.7546   -5.9218   38.0072  C.ar  1 MOL        -0.1150 
12   CE1      38.8670   -6.8376   35.5079  C.ar  1 MOL        -0.1150 
13   CE2      39.2420   -5.0098   37.0683  C.ar  1 MOL        -0.1150 
14   CZ       38.8302   -5.4559   35.7997  C.ar  1 MOL         0.1000 
15   OH       38.3137   -4.5508   34.9071  O.3   1 MOL        -0.2882 
16   P        39.2905   -4.0368   33.8095  P.3   1 MOL         1.2307 
17   O1P      39.3514   -2.5037   33.9161  O.3   1 MOL        -0.5682 
18   O2P      40.6320   -4.5611   33.8273  O.2   1 MOL        -0.6661 
19   O3P      38.6447   -4.3034   32.4362  O.3   1 MOL        -0.5682 
20   N        42.1164   -7.4220   41.4045  N.am  1 MOL        -0.5000 
21   CA       42.3260   -7.5688   42.8188  C.3   1 MOL         0.1400 
22   C        41.1110   -7.9823   43.5429  C.2   1 MOL         0.5000 
23   O        40.1000   -7.3642   43.2087  O.2   1 MOL        -0.5000 
24   CB       42.8340   -6.2157   43.4087  C.3   1 MOL        -0.1200 
25   CG       44.2279   -5.7453   42.8937  C.3   1 MOL        -0.1200 
26   CD       45.4397   -6.3048   43.6806  C.3   1 MOL         0.4700 
27   OE1      45.4775   -5.7432   44.9899  O.3   1 MOL        -0.6830 
28   OE2      45.3897   -7.7255   43.7723  O.3   1 MOL        -0.6830 
29   N1       41.0336   -8.8266   44.5987  N.am  1 MOL        -0.1400 
30   C2       42.1586   -9.5770   45.1533  C.3   1 MOL        -0.0500 
31   C6       39.7620   -9.1066   45.2726  C.3   1 MOL        -0.0500 
32   C3       42.3426   -9.3310   46.6762  C.3   1 MOL        -0.1200 
33   C4       41.0121   -9.5528   47.4489  C.3   1 MOL        -0.1200 
34   C5       39.7892   -8.8249   46.8117  C.3   1 MOL        -0.0600 
35   C1'      39.5893   -7.3099   47.2103  C.3   1 MOL        -0.1200 
36   C2'      40.8294   -6.3826   47.3731  C.3   1 MOL        -0.1200 
37   C3'      40.4878   -4.9914   47.9981  C.3   1 MOL        -0.1200 
38   C4'      41.5924   -4.4785   48.9512  C.3   1 MOL        -0.1800 
39   HH31     44.7360  -10.2752   37.3155  H     1 MOL         0.0600 
40   HH32     43.7296   -9.8001   35.9305  H     1 MOL         0.0600 
41   HH33     45.2905   -9.0092   36.2079  H     1 MOL         0.0600 
42   HN       42.4409   -9.7770   38.1605  H     1 MOL         0.3000 
43   HA       42.0949   -6.9789   38.9624  H     1 MOL         0.0600 
44   HB1      39.7190   -8.1157   39.6325  H     1 MOL         0.0600 
45   HB2      40.1923   -9.2891   38.4250  H     1 MOL         0.0600 
46   HD1      39.4250   -8.7430   36.2038  H     1 MOL         0.1150 
47   HD2      40.0570   -5.5736   38.9233  H     1 MOL         0.1150 
48   HE1      38.5408   -7.1768   34.5973  H     1 MOL         0.1150 
49   HE2      39.1916   -4.0207   37.3063  H     1 MOL         0.1150 
50   HO1P     39.1268   -2.3058   34.8522  H     1 MOL         0.3800 
51   HO3P     39.4095   -4.4159   31.8144  H     1 MOL         0.3800 
52   HN       42.0005   -6.5155   41.0731  H     1 MOL         0.3000 
53   HA       43.1194   -8.3093   42.9122  H     1 MOL         0.0600 
54   HB1      42.8741   -6.2813   44.4973  H     1 MOL         0.0600 
55   HB2      42.0963   -5.4398   43.1729  H     1 MOL         0.0600 
56   HG1      44.2590   -4.6494   42.9595  H     1 MOL         0.0600 
57   HG2      44.3383   -6.0013   41.8349  H     1 MOL         0.0600 
58   HD       46.3545   -6.0281   43.1551  H     1 MOL         0.0600 
59   HOE1     46.2023   -6.2119   45.4558  H     1 MOL         0.4180 
60   HOE2     46.2888   -7.9914   44.0916  H     1 MOL         0.4180 
61   H21      43.1198   -9.3584   44.6880  H     1 MOL         0.0600 
62   H22      41.9708  -10.6520   44.9933  H     1 MOL         0.0600 
63   H61      39.5404  -10.1688   45.1194  H     1 MOL         0.0600 
64   H62      38.9047   -8.5796   44.8417  H     1 MOL         0.0600 
65   H31      42.7080   -8.3083   46.8320  H     1 MOL         0.0600 
66   H32      43.0963  -10.0284   47.0631  H     1 MOL         0.0600 
67   H41      41.1308   -9.2492   48.4930  H     1 MOL         0.0600 
68   H42      40.8057  -10.6349   47.4603  H     1 MOL         0.0600 
69   H5       38.9020   -9.3346   47.1995  H     1 MOL         0.0600 
70   H1'1     39.0694   -7.3125   48.1758  H     1 MOL         0.0600 
71   H1'2     38.9022   -6.8337   46.4977  H     1 MOL         0.0600 
72   H2'1     41.2889   -6.2294   46.3948  H     1 MOL         0.0600 
73   H2'2     41.5509   -6.8868   48.0248  H     1 MOL         0.0600 
74   H3'1     39.5667   -5.0647   48.5886  H     1 MOL         0.0600 
75   H3'2     40.3354   -4.2599   47.1905  H     1 MOL         0.0600 
76   H4'1     41.2967   -3.5225   49.3896  H     1 MOL         0.0600 
77   H4'2     41.7410   -5.1913   49.7616  H     1 MOL         0.0600 
78   H4'3     42.5388   -4.3452   48.4257  H     1 MOL         0.0600 
@<TRIPOS>BOND
     1    1    2 2    
     2    1    3 1    
     3    1    4 am   BACKBONE|DICT|INTERRES
     4    3   39 1    
     5    3   40 1    
     6    3   41 1    
     7    4    5 1    
     8    4   42 1    
     9    5    8 1    
    10    5    6 1    
    11    5   43 1    
    12    6    7 2    
    13    6   20 am   BACKBONE|DICT|INTERRES
    14    8    9 1    
    15    8   44 1    
    16    8   45 1    
    17    9   11 ar   
    18    9   10 ar   
    19   10   12 ar   
    20   10   46 1    
    21   11   13 ar   
    22   11   47 1    
    23   12   14 ar   
    24   12   48 1    
    25   13   14 ar   
    26   13   49 1    
    27   14   15 1    
    28   15   16 1    
    29   16   19 1    
    30   16   18 2    
    31   16   17 1    
    32   17   50 1    
    33   19   51 1    
    34   20   21 1    
    35   20   52 1    
    36   21   22 1    
    37   21   24 1    
    38   21   53 1    
    39   22   23 2    
    40   22   29 am   BACKBONE|DICT|INTERRES
    41   24   25 1    
    42   24   54 1    
    43   24   55 1    
    44   25   26 1    
    45   25   56 1    
    46   25   57 1    
    47   26   27 1    
    48   26   28 1    
    49   26   58 1    
    50   27   59 1    
    51   28   60 1    
    52   29   31 1    
    53   29   30 1    
    54   30   32 1    
    55   30   61 1    
    56   30   62 1    
    57   31   34 1    
    58   31   63 1    
    59   31   64 1    
    60   32   33 1    
    61   32   65 1    
    62   32   66 1    
    63   33   34 1    
    64   33   67 1    
    65   33   68 1    
    66   34   35 1    
    67   34   69 1    
    68   35   36 1    
    69   35   70 1    
    70   35   71 1    
    71   36   37 1    
    72   36   72 1    
    73   36   73 1    
    74   37   38 1    
    75   37   74 1    
    76   37   75 1    
    77   38   76 1    
    78   38   77 1    
    79   38   78 1    
@<TRIPOS>SUBSTRUCTURE
     1 MOL         1 GROUP             0       ****    0 ROOT    
@<TRIPOS>PROPERTY_DATA
  Total_Score	| 8.7565
  Crash		| -1.2998
  Polar		| 6.5674

