@<TRIPOS>MOLECULE
1_0003
78   79    1
SMALL
USER_CHARGES


@<TRIPOS>ATOM
1    C        42.4344   -8.8907   38.2362  C.2   1 MOL         0.5000 
2    O        41.6021   -9.7872   38.2973  O.2   1 MOL        -0.5000 
3    CH3      43.6137   -9.0803   37.4197  C.3   1 MOL        -0.1800 
4    N        42.3094   -7.7519   38.9033  N.am  1 MOL        -0.5000 
5    CA       41.2825   -7.3423   39.8199  C.3   1 MOL         0.1400 
6    C        41.4694   -7.9435   41.1392  C.2   1 MOL         0.5000 
7    O        41.2069   -9.1294   41.2953  O.2   1 MOL        -0.5000 
8    CB       39.8173   -7.5182   39.3007  C.3   1 MOL        -0.0050 
9    CG       39.4854   -6.7064   38.0956  C.ar  1 MOL        -0.1150 
10   CD1      39.1543   -7.3303   36.8697  C.ar  1 MOL        -0.1150 
11   CD2      39.4306   -5.2930   38.1697  C.ar  1 MOL        -0.1150 
12   CE1      38.7779   -6.5631   35.7503  C.ar  1 MOL        -0.1150 
13   CE2      39.0722   -4.5272   37.0440  C.ar  1 MOL        -0.1150 
14   CZ       38.7683   -5.1533   35.8157  C.ar  1 MOL         0.1000 
15   OH       38.3395   -4.4171   34.7483  O.3   1 MOL        -0.2882 
16   P        39.3925   -4.2107   33.6262  P.3   1 MOL         1.2307 
17   O1P      38.6467   -4.3154   32.2760  O.3   1 MOL        -0.5682 
18   O2P      39.9129   -2.8639   33.6734  O.2   1 MOL        -0.6661 
19   O3P      40.5884   -5.1850   33.6377  O.3   1 MOL        -0.5682 
20   N        41.9309   -7.2024   42.1459  N.am  1 MOL        -0.5000 
21   CA       42.2107   -7.6098   43.5076  C.3   1 MOL         0.1400 
22   C        41.1004   -7.2630   44.4181  C.2   1 MOL         0.5000 
23   O        40.4938   -6.2406   44.1100  O.2   1 MOL        -0.5000 
24   CB       43.5874   -7.0722   44.0534  C.3   1 MOL        -0.1200 
25   CG       44.3868   -6.0434   43.2025  C.3   1 MOL        -0.1200 
26   CD       45.0139   -6.6277   41.9094  C.3   1 MOL         0.4700 
27   OE1      45.7967   -5.6339   41.2524  O.3   1 MOL        -0.6830 
28   OE2      45.8455   -7.7541   42.1927  O.3   1 MOL        -0.6830 
29   N1       40.7846   -7.8905   45.5762  N.am  1 MOL        -0.1400 
30   C2       41.4460   -9.0991   46.0581  C.3   1 MOL        -0.0500 
31   C6       39.6915   -7.4253   46.4340  C.3   1 MOL        -0.0500 
32   C3       41.9692   -8.9350   47.5068  C.3   1 MOL        -0.1200 
33   C4       40.8354   -8.4703   48.4486  C.3   1 MOL        -0.1200 
34   C5       40.1403   -7.1855   47.9126  C.3   1 MOL        -0.0600 
35   C1'      41.0234   -5.9010   48.0810  C.3   1 MOL        -0.1200 
36   C2'      40.2315   -4.5647   48.2530  C.3   1 MOL        -0.1200 
37   C3'      40.5909   -3.7927   49.5521  C.3   1 MOL        -0.1200 
38   C4'      39.8332   -2.4584   49.7410  C.3   1 MOL        -0.1800 
39   HH31     43.6737   -8.2895   36.6638  H     1 MOL         0.0600 
40   HH32     44.5115   -9.0439   38.0481  H     1 MOL         0.0600 
41   HH33     43.5970  -10.0469   36.9026  H     1 MOL         0.0600 
42   HN       43.0305   -7.1167   38.7827  H     1 MOL         0.3000 
43   HA       41.4316   -6.2662   39.9240  H     1 MOL         0.0600 
44   HB1      39.1113   -7.2202   40.0906  H     1 MOL         0.0600 
45   HB2      39.6287   -8.5798   39.1113  H     1 MOL         0.0600 
46   HD1      39.1552   -8.3476   36.7873  H     1 MOL         0.1150 
47   HD2      39.6132   -4.8105   39.0518  H     1 MOL         0.1150 
48   HE1      38.5065   -7.0347   34.8793  H     1 MOL         0.1150 
49   HE2      39.0251   -3.5051   37.1155  H     1 MOL         0.1150 
50   HO1P     38.8455   -5.2187   31.9449  H     1 MOL         0.3800 
51   HO3P     40.2352   -6.0141   33.2439  H     1 MOL         0.3800 
52   HN       42.0798   -6.2589   41.9519  H     1 MOL         0.3000 
53   HA       42.2812   -8.7002   43.4702  H     1 MOL         0.0600 
54   HB1      44.2425   -7.9261   44.2498  H     1 MOL         0.0600 
55   HB2      43.4303   -6.5974   45.0311  H     1 MOL         0.0600 
56   HG1      45.2018   -5.6448   43.8201  H     1 MOL         0.0600 
57   HG2      43.7422   -5.1982   42.9520  H     1 MOL         0.0600 
58   HD       44.2303   -6.9453   41.2140  H     1 MOL         0.0600 
59   HOE1     46.7130   -5.7816   41.5800  H     1 MOL         0.4180 
60   HOE2     46.4324   -7.4686   42.9273  H     1 MOL         0.4180 
61   H21      42.3031   -9.4215   45.4722  H     1 MOL         0.0600 
62   H22      40.7253   -9.9186   46.0345  H     1 MOL         0.0600 
63   H61      38.9106   -8.1887   46.4234  H     1 MOL         0.0600 
64   H62      39.2065   -6.5094   46.0824  H     1 MOL         0.0600 
65   H31      42.7841   -8.2065   47.5202  H     1 MOL         0.0600 
66   H32      42.3684   -9.8904   47.8647  H     1 MOL         0.0600 
67   H41      41.2354   -8.3023   49.4508  H     1 MOL         0.0600 
68   H42      40.0954   -9.2731   48.5281  H     1 MOL         0.0600 
69   H5       39.2395   -7.0555   48.5218  H     1 MOL         0.0600 
70   H1'1     41.6875   -5.8062   47.2168  H     1 MOL         0.0600 
71   H1'2     41.6813   -6.0355   48.9456  H     1 MOL         0.0600 
72   H2'1     39.1583   -4.7647   48.2686  H     1 MOL         0.0600 
73   H2'2     40.4290   -3.9158   47.3932  H     1 MOL         0.0600 
74   H3'1     41.6632   -3.5772   49.5450  H     1 MOL         0.0600 
75   H3'2     40.3782   -4.4299   50.4137  H     1 MOL         0.0600 
76   H4'1     40.1606   -1.9879   50.6678  H     1 MOL         0.0600 
77   H4'2     40.0372   -1.7781   48.9148  H     1 MOL         0.0600 
78   H4'3     38.7582   -2.6284   49.7945  H     1 MOL         0.0600 
@<TRIPOS>BOND
     1    1    2 2    
     2    1    3 1    
     3    1    4 am   BACKBONE|DICT|INTERRES
     4    3   39 1    
     5    3   40 1    
     6    3   41 1    
     7    4    5 1    
     8    4   42 1    
     9    5    8 1    
    10    5    6 1    
    11    5   43 1    
    12    6    7 2    
    13    6   20 am   BACKBONE|DICT|INTERRES
    14    8    9 1    
    15    8   44 1    
    16    8   45 1    
    17    9   11 ar   
    18    9   10 ar   
    19   10   12 ar   
    20   10   46 1    
    21   11   13 ar   
    22   11   47 1    
    23   12   14 ar   
    24   12   48 1    
    25   13   14 ar   
    26   13   49 1    
    27   14   15 1    
    28   15   16 1    
    29   16   19 1    
    30   16   18 2    
    31   16   17 1    
    32   17   50 1    
    33   19   51 1    
    34   20   21 1    
    35   20   52 1    
    36   21   22 1    
    37   21   24 1    
    38   21   53 1    
    39   22   23 2    
    40   22   29 am   BACKBONE|DICT|INTERRES
    41   24   25 1    
    42   24   54 1    
    43   24   55 1    
    44   25   26 1    
    45   25   56 1    
    46   25   57 1    
    47   26   27 1    
    48   26   28 1    
    49   26   58 1    
    50   27   59 1    
    51   28   60 1    
    52   29   31 1    
    53   29   30 1    
    54   30   32 1    
    55   30   61 1    
    56   30   62 1    
    57   31   34 1    
    58   31   63 1    
    59   31   64 1    
    60   32   33 1    
    61   32   65 1    
    62   32   66 1    
    63   33   34 1    
    64   33   67 1    
    65   33   68 1    
    66   34   35 1    
    67   34   69 1    
    68   35   36 1    
    69   35   70 1    
    70   35   71 1    
    71   36   37 1    
    72   36   72 1    
    73   36   73 1    
    74   37   38 1    
    75   37   74 1    
    76   37   75 1    
    77   38   76 1    
    78   38   77 1    
    79   38   78 1    
@<TRIPOS>SUBSTRUCTURE
     1 MOL         1 GROUP             0       ****    0 ROOT    
@<TRIPOS>PROPERTY_DATA
  Total_Score	| 8.2683
  Crash		| -2.7299
  Polar		| 6.6503

