@<TRIPOS>MOLECULE
1_0006
78   79    1
SMALL
USER_CHARGES


@<TRIPOS>ATOM
1    C        43.6231   -8.3895   37.5877  C.2   1 MOL         0.5000 
2    O        44.0713   -7.2509   37.5914  O.2   1 MOL        -0.5000 
3    CH3      44.2762   -9.4062   36.7944  C.3   1 MOL        -0.1800 
4    N        42.5751   -8.7394   38.3250  N.am  1 MOL        -0.5000 
5    CA       41.8076   -7.9112   39.2209  C.3   1 MOL         0.1400 
6    C        42.1134   -8.2686   40.6048  C.2   1 MOL         0.5000 
7    O        42.2588   -9.4382   40.9352  O.2   1 MOL        -0.5000 
8    CB       40.2821   -8.0623   38.9149  C.3   1 MOL        -0.0050 
9    CG       39.8123   -7.1512   37.8331  C.ar  1 MOL        -0.1150 
10   CD1      39.5269   -7.6280   36.5324  C.ar  1 MOL        -0.1150 
11   CD2      39.6081   -5.7765   38.1124  C.ar  1 MOL        -0.1150 
12   CE1      39.0239   -6.7569   35.5438  C.ar  1 MOL        -0.1150 
13   CE2      39.1093   -4.9101   37.1233  C.ar  1 MOL        -0.1150 
14   CZ       38.8404   -5.3851   35.8248  C.ar  1 MOL         0.1000 
15   OH       38.3085   -4.5424   34.8898  O.3   1 MOL        -0.2882 
16   P        39.2970   -4.0482   33.7930  P.3   1 MOL         1.2307 
17   O1P      39.3405   -2.5122   33.8832  O.3   1 MOL        -0.5682 
18   O2P      40.6435   -4.5624   33.8500  O.2   1 MOL        -0.6661 
19   O3P      38.6555   -4.3372   32.4207  O.3   1 MOL        -0.5682 
20   N        42.1202   -7.2993   41.5126  N.am  1 MOL        -0.5000 
21   CA       42.4185   -7.3849   42.9131  C.3   1 MOL         0.1400 
22   C        41.1733   -7.3372   43.7088  C.2   1 MOL         0.5000 
23   O        40.4605   -6.3819   43.4155  O.2   1 MOL        -0.5000 
24   CB       43.3424   -6.1860   43.2977  C.3   1 MOL        -0.1200 
25   CG       44.6425   -5.9874   42.4575  C.3   1 MOL        -0.1200 
26   CD       45.9527   -6.5880   43.0361  C.3   1 MOL         0.4700 
27   OE1      45.9701   -6.5389   44.4622  O.3   1 MOL        -0.6830 
28   OE2      46.1737   -7.9238   42.5930  O.3   1 MOL        -0.6830 
29   N1       40.7927   -8.1234   44.7444  N.am  1 MOL        -0.1400 
30   C2       41.5029   -9.3158   45.1894  C.3   1 MOL        -0.0500 
31   C6       39.6209   -7.8002   45.5721  C.3   1 MOL        -0.0500 
32   C3       42.0141   -9.1296   46.6414  C.3   1 MOL        -0.1200 
33   C4       40.8338   -8.7728   47.5797  C.3   1 MOL        -0.1200 
34   C5       40.0315   -7.5368   47.0614  C.3   1 MOL        -0.0600 
35   C1'      40.7487   -6.1466   47.2071  C.3   1 MOL        -0.1200 
36   C2'      41.5259   -5.8533   48.5267  C.3   1 MOL        -0.1200 
37   C3'      40.7062   -5.9743   49.8527  C.3   1 MOL        -0.1200 
38   C4'      41.3867   -6.8529   50.9350  C.3   1 MOL        -0.1800 
39   HH31     44.6074  -10.2212   37.4431  H     1 MOL         0.0600 
40   HH32     43.5744   -9.8003   36.0564  H     1 MOL         0.0600 
41   HH33     45.1479   -9.0062   36.2678  H     1 MOL         0.0600 
42   HN       42.3202   -9.6761   38.2812  H     1 MOL         0.3000 
43   HA       42.0893   -6.8603   39.0764  H     1 MOL         0.0600 
44   HB1      39.6933   -7.8337   39.8079  H     1 MOL         0.0600 
45   HB2      40.0645   -9.1057   38.6661  H     1 MOL         0.0600 
46   HD1      39.6617   -8.6174   36.3004  H     1 MOL         0.1150 
47   HD2      39.7940   -5.4063   39.0490  H     1 MOL         0.1150 
48   HE1      38.8090   -7.1191   34.6124  H     1 MOL         0.1150 
49   HE2      38.9493   -3.9241   37.3515  H     1 MOL         0.1150 
50   HO1P     39.1632   -2.3038   34.8263  H     1 MOL         0.3800 
51   HO3P     39.3675   -4.7425   31.8785  H     1 MOL         0.3800 
52   HN       41.9161   -6.4124   41.1864  H     1 MOL         0.3000 
53   HA       43.0026   -8.2818   43.0874  H     1 MOL         0.0600 
54   HB1      43.6196   -6.2812   44.3501  H     1 MOL         0.0600 
55   HB2      42.7580   -5.2646   43.2018  H     1 MOL         0.0600 
56   HG1      44.7972   -4.9075   42.3556  H     1 MOL         0.0600 
57   HG2      44.5045   -6.3743   41.4421  H     1 MOL         0.0600 
58   HD       46.7942   -5.9895   42.6752  H     1 MOL         0.0600 
59   HOE1     46.8512   -6.9071   44.7204  H     1 MOL         0.4180 
60   HOE2     45.5709   -8.4835   43.1238  H     1 MOL         0.4180 
61   H21      42.3498   -9.6125   44.5785  H     1 MOL         0.0600 
62   H22      40.8111  -10.1668   45.1591  H     1 MOL         0.0600 
63   H61      38.9255   -8.6452   45.5409  H     1 MOL         0.0600 
64   H62      39.0459   -6.9351   45.2245  H     1 MOL         0.0600 
65   H31      42.7634   -8.3316   46.6685  H     1 MOL         0.0600 
66   H32      42.4794  -10.0559   46.9903  H     1 MOL         0.0600 
67   H41      41.2073   -8.6078   48.5943  H     1 MOL         0.0600 
68   H42      40.1530   -9.6324   47.6276  H     1 MOL         0.0600 
69   H5       39.1104   -7.4833   47.6503  H     1 MOL         0.0600 
70   H1'1     40.0005   -5.3556   47.0803  H     1 MOL         0.0600 
71   H1'2     41.4720   -6.0341   46.3950  H     1 MOL         0.0600 
72   H2'1     41.9125   -4.8273   48.4635  H     1 MOL         0.0600 
73   H2'2     42.4083   -6.4977   48.5583  H     1 MOL         0.0600 
74   H3'1     39.7116   -6.3867   49.6549  H     1 MOL         0.0600 
75   H3'2     40.5568   -4.9685   50.2690  H     1 MOL         0.0600 
76   H4'1     40.8706   -6.7239   51.8913  H     1 MOL         0.0600 
77   H4'2     41.3387   -7.9073   50.6489  H     1 MOL         0.0600 
78   H4'3     42.4356   -6.5653   51.0583  H     1 MOL         0.0600 
@<TRIPOS>BOND
     1    1    2 2    
     2    1    3 1    
     3    1    4 am   BACKBONE|DICT|INTERRES
     4    3   39 1    
     5    3   40 1    
     6    3   41 1    
     7    4    5 1    
     8    4   42 1    
     9    5    8 1    
    10    5    6 1    
    11    5   43 1    
    12    6    7 2    
    13    6   20 am   BACKBONE|DICT|INTERRES
    14    8    9 1    
    15    8   44 1    
    16    8   45 1    
    17    9   11 ar   
    18    9   10 ar   
    19   10   12 ar   
    20   10   46 1    
    21   11   13 ar   
    22   11   47 1    
    23   12   14 ar   
    24   12   48 1    
    25   13   14 ar   
    26   13   49 1    
    27   14   15 1    
    28   15   16 1    
    29   16   19 1    
    30   16   18 2    
    31   16   17 1    
    32   17   50 1    
    33   19   51 1    
    34   20   21 1    
    35   20   52 1    
    36   21   22 1    
    37   21   24 1    
    38   21   53 1    
    39   22   23 2    
    40   22   29 am   BACKBONE|DICT|INTERRES
    41   24   25 1    
    42   24   54 1    
    43   24   55 1    
    44   25   26 1    
    45   25   56 1    
    46   25   57 1    
    47   26   27 1    
    48   26   28 1    
    49   26   58 1    
    50   27   59 1    
    51   28   60 1    
    52   29   31 1    
    53   29   30 1    
    54   30   32 1    
    55   30   61 1    
    56   30   62 1    
    57   31   34 1    
    58   31   63 1    
    59   31   64 1    
    60   32   33 1    
    61   32   65 1    
    62   32   66 1    
    63   33   34 1    
    64   33   67 1    
    65   33   68 1    
    66   34   35 1    
    67   34   69 1    
    68   35   36 1    
    69   35   70 1    
    70   35   71 1    
    71   36   37 1    
    72   36   72 1    
    73   36   73 1    
    74   37   38 1    
    75   37   74 1    
    76   37   75 1    
    77   38   76 1    
    78   38   77 1    
    79   38   78 1    
@<TRIPOS>SUBSTRUCTURE
     1 MOL         1 GROUP             0       ****    0 ROOT    
@<TRIPOS>PROPERTY_DATA
  Total_Score	| 7.7307
  Crash		| -1.3926
  Polar		| 6.5234

