@<TRIPOS>MOLECULE
1_0016
78   79    1
SMALL
USER_CHARGES


@<TRIPOS>ATOM
1    C        38.1936   -7.6163   40.8295  C.2   1 MOL         0.5000 
2    O        38.3901   -6.5971   41.4812  O.2   1 MOL        -0.5000 
3    CH3      36.8573   -8.1761   40.7617  C.3   1 MOL        -0.1800 
4    N        39.1681   -8.2261   40.1657  N.am  1 MOL        -0.5000 
5    CA       40.5644   -7.8750   40.1186  C.3   1 MOL         0.1400 
6    C        41.2495   -8.2626   41.3574  C.2   1 MOL         0.5000 
7    O        41.0410   -9.3891   41.7917  O.2   1 MOL        -0.5000 
8    CB       40.7928   -6.3977   39.6460  C.3   1 MOL        -0.0050 
9    CG       40.1196   -5.9560   38.3853  C.ar  1 MOL        -0.1150 
10   CD1      39.6329   -4.6281   38.2641  C.ar  1 MOL        -0.1150 
11   CD2      40.0083   -6.8037   37.2513  C.ar  1 MOL        -0.1150 
12   CE1      39.0831   -4.1591   37.0551  C.ar  1 MOL        -0.1150 
13   CE2      39.4278   -6.3477   36.0475  C.ar  1 MOL        -0.1150 
14   CZ       39.0043   -5.0034   35.9276  C.ar  1 MOL         0.1000 
15   OH       38.4087   -4.5290   34.7865  O.3   1 MOL        -0.2882 
16   P        39.3435   -4.5014   33.5396  P.3   1 MOL         1.2307 
17   O1P      39.8987   -5.8920   33.1556  O.3   1 MOL        -0.5682 
18   O2P      38.5235   -4.0541   32.4445  O.2   1 MOL        -0.6661 
19   O3P      40.5032   -3.4971   33.6687  O.3   1 MOL        -0.5682 
20   N        42.1440   -7.4771   41.9557  N.am  1 MOL        -0.5000 
21   CA       42.9524   -7.7543   43.1182  C.3   1 MOL         0.1400 
22   C        44.0615   -8.6774   42.7808  C.2   1 MOL         0.5000 
23   O        43.9040   -9.8434   43.1343  O.2   1 MOL        -0.5000 
24   CB       42.0750   -8.1232   44.3714  C.3   1 MOL        -0.1200 
25   CG       42.5046   -7.4949   45.7308  C.3   1 MOL        -0.1200 
26   CD       44.0242   -7.3503   46.0225  C.3   1 MOL         0.4700 
27   OE1      44.2322   -6.9376   47.3723  O.3   1 MOL        -0.6830 
28   OE2      44.7441   -8.5644   45.7983  O.3   1 MOL        -0.6830 
29   N1       45.1764   -8.3617   42.0802  N.am  1 MOL        -0.1400 
30   C2       45.3744   -7.0878   41.3996  C.3   1 MOL        -0.0500 
31   C6       46.2969   -9.2996   41.9448  C.3   1 MOL        -0.0500 
32   C3       46.6735   -6.3843   41.8587  C.3   1 MOL        -0.1200 
33   C4       47.8886   -7.3286   41.7057  C.3   1 MOL        -0.1200 
34   C5       47.6503   -8.6862   42.4365  C.3   1 MOL        -0.0600 
35   C1'      47.7358   -8.5434   43.9980  C.3   1 MOL        -0.1200 
36   C2'      48.5799   -9.6200   44.7404  C.3   1 MOL        -0.1200 
37   C3'      50.1212   -9.5856   44.5235  C.3   1 MOL        -0.1200 
38   C4'      50.7359   -8.1697   44.3863  C.3   1 MOL        -0.1800 
39   HH31     36.5046   -8.1666   39.7259  H     1 MOL         0.0600 
40   HH32     36.8782   -9.2078   41.1265  H     1 MOL         0.0600 
41   HH33     36.1532   -7.6052   41.3738  H     1 MOL         0.0600 
42   HN       38.9174   -9.0148   39.6590  H     1 MOL         0.3000 
43   HA       41.0041   -8.4997   39.3368  H     1 MOL         0.0600 
44   HB1      41.8609   -6.2404   39.4755  H     1 MOL         0.0600 
45   HB2      40.4822   -5.7231   40.4513  H     1 MOL         0.0600 
46   HD1      39.6999   -3.9691   39.0477  H     1 MOL         0.1150 
47   HD2      40.3611   -7.7684   37.2960  H     1 MOL         0.1150 
48   HE1      38.7488   -3.1887   36.9866  H     1 MOL         0.1150 
49   HE2      39.3396   -6.9908   35.2530  H     1 MOL         0.1150 
50   HO1P     39.2873   -6.2091   32.4534  H     1 MOL         0.3800 
51   HO3P     40.6221   -3.1660   32.7546  H     1 MOL         0.3800 
52   HN       42.2866   -6.6030   41.5562  H     1 MOL         0.3000 
53   HA       43.4108   -6.7937   43.3671  H     1 MOL         0.0600 
54   HB1      42.0151   -9.2096   44.4816  H     1 MOL         0.0600 
55   HB2      41.0517   -7.7823   44.1875  H     1 MOL         0.0600 
56   HG1      42.0601   -8.0941   46.5309  H     1 MOL         0.0600 
57   HG2      42.0585   -6.4958   45.7946  H     1 MOL         0.0600 
58   HD       44.4457   -6.5780   45.3793  H     1 MOL         0.0600 
59   HOE1     43.9071   -7.6818   47.9241  H     1 MOL         0.4180 
60   HOE2     44.3225   -9.2330   46.3940  H     1 MOL         0.4180 
61   H21      44.5630   -6.3713   41.5275  H     1 MOL         0.0600 
62   H22      45.4344   -7.2871   40.3248  H     1 MOL         0.0600 
63   H61      46.3913   -9.5616   40.8886  H     1 MOL         0.0600 
64   H62      46.1503  -10.2420   42.4761  H     1 MOL         0.0600 
65   H31      46.5717   -6.0820   42.9042  H     1 MOL         0.0600 
66   H32      46.8316   -5.4915   41.2532  H     1 MOL         0.0600 
67   H41      48.7865   -6.8335   42.0916  H     1 MOL         0.0600 
68   H42      48.0578   -7.5188   40.6392  H     1 MOL         0.0600 
69   H5       48.4521   -9.3489   42.1041  H     1 MOL         0.0600 
70   H1'1     46.7224   -8.5686   44.4096  H     1 MOL         0.0600 
71   H1'2     48.1421   -7.5620   44.2687  H     1 MOL         0.0600 
72   H2'1     48.2146  -10.6108   44.4561  H     1 MOL         0.0600 
73   H2'2     48.3884   -9.5026   45.8122  H     1 MOL         0.0600 
74   H3'1     50.3800  -10.1645   43.6347  H     1 MOL         0.0600 
75   H3'2     50.5910  -10.0789   45.3771  H     1 MOL         0.0600 
76   H4'1     51.8275   -8.2360   44.4250  H     1 MOL         0.0600 
77   H4'2     50.4539   -7.7251   43.4273  H     1 MOL         0.0600 
78   H4'3     50.3955   -7.5161   45.1964  H     1 MOL         0.0600 
@<TRIPOS>BOND
     1    1    2 2    
     2    1    3 1    
     3    1    4 am   BACKBONE|DICT|INTERRES
     4    3   39 1    
     5    3   40 1    
     6    3   41 1    
     7    4    5 1    
     8    4   42 1    
     9    5    8 1    
    10    5    6 1    
    11    5   43 1    
    12    6    7 2    
    13    6   20 am   BACKBONE|DICT|INTERRES
    14    8    9 1    
    15    8   44 1    
    16    8   45 1    
    17    9   11 ar   
    18    9   10 ar   
    19   10   12 ar   
    20   10   46 1    
    21   11   13 ar   
    22   11   47 1    
    23   12   14 ar   
    24   12   48 1    
    25   13   14 ar   
    26   13   49 1    
    27   14   15 1    
    28   15   16 1    
    29   16   19 1    
    30   16   18 2    
    31   16   17 1    
    32   17   50 1    
    33   19   51 1    
    34   20   21 1    
    35   20   52 1    
    36   21   22 1    
    37   21   24 1    
    38   21   53 1    
    39   22   23 2    
    40   22   29 am   BACKBONE|DICT|INTERRES
    41   24   25 1    
    42   24   54 1    
    43   24   55 1    
    44   25   26 1    
    45   25   56 1    
    46   25   57 1    
    47   26   27 1    
    48   26   28 1    
    49   26   58 1    
    50   27   59 1    
    51   28   60 1    
    52   29   31 1    
    53   29   30 1    
    54   30   32 1    
    55   30   61 1    
    56   30   62 1    
    57   31   34 1    
    58   31   63 1    
    59   31   64 1    
    60   32   33 1    
    61   32   65 1    
    62   32   66 1    
    63   33   34 1    
    64   33   67 1    
    65   33   68 1    
    66   34   35 1    
    67   34   69 1    
    68   35   36 1    
    69   35   70 1    
    70   35   71 1    
    71   36   37 1    
    72   36   72 1    
    73   36   73 1    
    74   37   38 1    
    75   37   74 1    
    76   37   75 1    
    77   38   76 1    
    78   38   77 1    
    79   38   78 1    
@<TRIPOS>SUBSTRUCTURE
     1 MOL         1 GROUP             0       ****    0 ROOT    
@<TRIPOS>PROPERTY_DATA
  Total_Score	| 7.3723
  Crash		| -1.5068
  Polar		| 6.3231

