@<TRIPOS>MOLECULE
1_0014
78   79    1
SMALL
USER_CHARGES


@<TRIPOS>ATOM
1    C        41.0994   -9.7828   38.3922  C.2   1 MOL         0.5000 
2    O        40.0123  -10.1465   38.8301  O.2   1 MOL        -0.5000 
3    CH3      41.7012  -10.5220   37.3073  C.3   1 MOL        -0.1800 
4    N        41.7131   -8.6930   38.8442  N.am  1 MOL        -0.5000 
5    CA       41.2624   -7.7446   39.8313  C.3   1 MOL         0.1400 
6    C        41.4411   -8.2159   41.2004  C.2   1 MOL         0.5000 
7    O        41.1090   -9.3553   41.4917  O.2   1 MOL        -0.5000 
8    CB       39.8143   -7.2121   39.6153  C.3   1 MOL        -0.0050 
9    CG       39.6007   -6.6853   38.2405  C.ar  1 MOL        -0.1150 
10   CD1      39.9543   -5.3518   37.9281  C.ar  1 MOL        -0.1150 
11   CD2      39.0942   -7.5066   37.2084  C.ar  1 MOL        -0.1150 
12   CE1      39.8091   -4.8595   36.6203  C.ar  1 MOL        -0.1150 
13   CE2      38.9610   -7.0117   35.8970  C.ar  1 MOL        -0.1150 
14   CZ       39.3079   -5.6806   35.5770  C.ar  1 MOL         0.1000 
15   OH       39.1555   -5.3610   34.2529  O.3   1 MOL        -0.2882 
16   P        39.3642   -3.9226   33.7016  P.3   1 MOL         1.2307 
17   O1P      38.6256   -2.9093   34.5991  O.3   1 MOL        -0.5682 
18   O2P      40.7715   -3.6090   33.6079  O.2   1 MOL        -0.6661 
19   O3P      38.7338   -3.8146   32.3020  O.3   1 MOL        -0.5682 
20   N        41.8647   -7.3706   42.1386  N.am  1 MOL        -0.5000 
21   CA       42.1564   -7.6681   43.5191  C.3   1 MOL         0.1400 
22   C        41.0040   -7.2606   44.3452  C.2   1 MOL         0.5000 
23   O        40.6742   -6.0908   44.1613  O.2   1 MOL        -0.5000 
24   CB       43.5005   -7.0412   44.0510  C.3   1 MOL        -0.1200 
25   CG       44.2664   -6.0231   43.1589  C.3   1 MOL        -0.1200 
26   CD       44.9220   -6.6119   41.8784  C.3   1 MOL         0.4700 
27   OE1      45.7460   -5.6242   41.2664  O.3   1 MOL        -0.6830 
28   OE2      45.7105   -7.7713   42.1540  O.3   1 MOL        -0.6830 
29   N1       40.3806   -7.9686   45.3166  N.am  1 MOL        -0.1400 
30   C2       40.6480   -9.3663   45.6467  C.3   1 MOL        -0.0500 
31   C6       39.3623   -7.3581   46.1780  C.3   1 MOL        -0.0500 
32   C3       41.1766   -9.4868   47.0967  C.3   1 MOL        -0.1200 
33   C4       40.1696   -8.8526   48.0861  C.3   1 MOL        -0.1200 
34   C5       39.7839   -7.3941   47.6811  C.3   1 MOL        -0.0600 
35   C1'      40.9022   -6.3517   48.0361  C.3   1 MOL        -0.1200 
36   C2'      40.3821   -4.8905   48.2233  C.3   1 MOL        -0.1200 
37   C3'      41.1841   -4.0755   49.2768  C.3   1 MOL        -0.1200 
38   C4'      40.4031   -2.8686   49.8496  C.3   1 MOL        -0.1800 
39   HH31     41.9188   -9.8450   36.4768  H     1 MOL         0.0600 
40   HH32     42.6306  -10.9883   37.6443  H     1 MOL         0.0600 
41   HH33     41.0329  -11.3053   36.9397  H     1 MOL         0.0600 
42   HN       42.5778   -8.5026   38.4470  H     1 MOL         0.3000 
43   HA       41.9283   -6.8837   39.6995  H     1 MOL         0.0600 
44   HB1      39.5980   -6.4112   40.3299  H     1 MOL         0.0600 
45   HB2      39.0888   -8.0027   39.8172  H     1 MOL         0.0600 
46   HD1      40.3290   -4.7301   38.6564  H     1 MOL         0.1150 
47   HD2      38.8401   -8.4776   37.4032  H     1 MOL         0.1150 
48   HE1      40.0801   -3.8817   36.4329  H     1 MOL         0.1150 
49   HE2      38.6094   -7.6399   35.1702  H     1 MOL         0.1150 
50   HO1P     39.3165   -2.2907   34.9222  H     1 MOL         0.3800 
51   HO3P     39.4753   -3.9658   31.6644  H     1 MOL         0.3800 
52   HN       41.9888   -6.4467   41.8617  H     1 MOL         0.3000 
53   HA       42.3089   -8.7373   43.5679  H     1 MOL         0.0600 
54   HB1      44.1929   -7.8546   44.2845  H     1 MOL         0.0600 
55   HB2      43.3255   -6.5387   45.0057  H     1 MOL         0.0600 
56   HG1      45.0627   -5.5881   43.7686  H     1 MOL         0.0600 
57   HG2      43.5932   -5.2072   42.8817  H     1 MOL         0.0600 
58   HD       44.1631   -6.8845   41.1467  H     1 MOL         0.0600 
59   HOE1     46.6301   -5.7436   41.6794  H     1 MOL         0.4180 
60   HOE2     46.2865   -7.5182   42.9052  H     1 MOL         0.4180 
61   H21      41.3543   -9.8808   45.0074  H     1 MOL         0.0600 
62   H22      39.7176   -9.9361   45.5569  H     1 MOL         0.0600 
63   H61      38.4272   -7.9157   46.0585  H     1 MOL         0.0600 
64   H62      39.1184   -6.3224   45.9273  H     1 MOL         0.0600 
65   H31      42.1448   -8.9814   47.1739  H     1 MOL         0.0600 
66   H32      41.3213  -10.5408   47.3516  H     1 MOL         0.0600 
67   H41      40.5893   -8.8779   49.0966  H     1 MOL         0.0600 
68   H42      39.2639   -9.4669   48.1012  H     1 MOL         0.0600 
69   H5       38.8978   -7.1508   48.2753  H     1 MOL         0.0600 
70   H1'1     41.6837   -6.3560   47.2710  H     1 MOL         0.0600 
71   H1'2     41.3753   -6.6635   48.9705  H     1 MOL         0.0600 
72   H2'1     39.3439   -4.9220   48.5519  H     1 MOL         0.0600 
73   H2'2     40.4113   -4.3688   47.2624  H     1 MOL         0.0600 
74   H3'1     42.1200   -3.7303   48.8294  H     1 MOL         0.0600 
75   H3'2     41.4336   -4.7263   50.1171  H     1 MOL         0.0600 
76   H4'1     41.0220   -2.3392   50.5761  H     1 MOL         0.0600 
77   H4'2     40.1222   -2.1775   49.0543  H     1 MOL         0.0600 
78   H4'3     39.4984   -3.2113   50.3561  H     1 MOL         0.0600 
@<TRIPOS>BOND
     1    1    2 2    
     2    1    3 1    
     3    1    4 am   BACKBONE|DICT|INTERRES
     4    3   39 1    
     5    3   40 1    
     6    3   41 1    
     7    4    5 1    
     8    4   42 1    
     9    5    8 1    
    10    5    6 1    
    11    5   43 1    
    12    6    7 2    
    13    6   20 am   BACKBONE|DICT|INTERRES
    14    8    9 1    
    15    8   44 1    
    16    8   45 1    
    17    9   11 ar   
    18    9   10 ar   
    19   10   12 ar   
    20   10   46 1    
    21   11   13 ar   
    22   11   47 1    
    23   12   14 ar   
    24   12   48 1    
    25   13   14 ar   
    26   13   49 1    
    27   14   15 1    
    28   15   16 1    
    29   16   19 1    
    30   16   18 2    
    31   16   17 1    
    32   17   50 1    
    33   19   51 1    
    34   20   21 1    
    35   20   52 1    
    36   21   22 1    
    37   21   24 1    
    38   21   53 1    
    39   22   23 2    
    40   22   29 am   BACKBONE|DICT|INTERRES
    41   24   25 1    
    42   24   54 1    
    43   24   55 1    
    44   25   26 1    
    45   25   56 1    
    46   25   57 1    
    47   26   27 1    
    48   26   28 1    
    49   26   58 1    
    50   27   59 1    
    51   28   60 1    
    52   29   31 1    
    53   29   30 1    
    54   30   32 1    
    55   30   61 1    
    56   30   62 1    
    57   31   34 1    
    58   31   63 1    
    59   31   64 1    
    60   32   33 1    
    61   32   65 1    
    62   32   66 1    
    63   33   34 1    
    64   33   67 1    
    65   33   68 1    
    66   34   35 1    
    67   34   69 1    
    68   35   36 1    
    69   35   70 1    
    70   35   71 1    
    71   36   37 1    
    72   36   72 1    
    73   36   73 1    
    74   37   38 1    
    75   37   74 1    
    76   37   75 1    
    77   38   76 1    
    78   38   77 1    
    79   38   78 1    
@<TRIPOS>SUBSTRUCTURE
     1 MOL         1 GROUP             0       ****    0 ROOT    
@<TRIPOS>PROPERTY_DATA
  Total_Score	| 7.5072
  Crash		| -2.3159
  Polar		| 5.2630

