@<TRIPOS>MOLECULE
1_0011
78   79    1
SMALL
USER_CHARGES


@<TRIPOS>ATOM
1    C        43.4874   -8.4573   37.5475  C.2   1 MOL         0.5000 
2    O        44.0356   -7.3576   37.5355  O.2   1 MOL        -0.5000 
3    CH3      44.0415   -9.5308   36.7607  C.3   1 MOL        -0.1800 
4    N        42.4269   -8.6981   38.3045  N.am  1 MOL        -0.5000 
5    CA       41.8098   -7.7981   39.2582  C.3   1 MOL         0.1400 
6    C        41.9336   -8.3291   40.6119  C.2   1 MOL         0.5000 
7    O        41.9154   -9.5407   40.7978  O.2   1 MOL        -0.5000 
8    CB       40.3017   -7.5681   38.9376  C.3   1 MOL        -0.0050 
9    CG       39.9990   -6.7147   37.7514  C.ar  1 MOL        -0.1150 
10   CD1      39.0404   -7.1295   36.7891  C.ar  1 MOL        -0.1150 
11   CD2      40.5376   -5.4076   37.6564  C.ar  1 MOL        -0.1150 
12   CE1      38.6228   -6.2592   35.7701  C.ar  1 MOL        -0.1150 
13   CE2      40.1251   -4.5390   36.6264  C.ar  1 MOL        -0.1150 
14   CZ       39.1773   -4.9690   35.6679  C.ar  1 MOL         0.1000 
15   OH       38.7015   -4.0980   34.7269  O.3   1 MOL        -0.2882 
16   P        39.4706   -4.1193   33.3752  P.3   1 MOL         1.2307 
17   O1P      40.6213   -5.1361   33.2175  O.3   1 MOL        -0.5682 
18   O2P      38.4913   -4.2988   32.3365  O.2   1 MOL        -0.6661 
19   O3P      40.0548   -2.7206   33.1318  O.3   1 MOL        -0.5682 
20   N        41.8982   -7.4773   41.6318  N.am  1 MOL        -0.5000 
21   CA       41.9298   -7.8035   43.0284  C.3   1 MOL         0.1400 
22   C        41.0212   -6.8981   43.7577  C.2   1 MOL         0.5000 
23   O        41.5297   -6.3300   44.7204  O.2   1 MOL        -0.5000 
24   CB       43.4281   -7.8753   43.4922  C.3   1 MOL        -0.1200 
25   CG       44.3755   -6.7165   43.0535  C.3   1 MOL        -0.1200 
26   CD       44.9966   -6.8455   41.6364  C.3   1 MOL         0.4700 
27   OE1      45.7224   -5.6682   41.3022  O.3   1 MOL        -0.6830 
28   OE2      45.8786   -7.9646   41.5311  O.3   1 MOL        -0.6830 
29   N1       39.7120   -6.6799   43.4881  N.am  1 MOL        -0.1400 
30   C2       38.9958   -7.2643   42.3575  C.3   1 MOL        -0.0500 
31   C6       38.9050   -5.7615   44.2915  C.3   1 MOL        -0.0500 
32   C3       37.6514   -7.9348   42.7507  C.3   1 MOL        -0.1200 
33   C4       36.7905   -7.0008   43.6391  C.3   1 MOL        -0.1200 
34   C5       37.6110   -6.4492   44.8426  C.3   1 MOL        -0.0600 
35   C1'      37.8813   -7.5518   45.9248  C.3   1 MOL        -0.1200 
36   C2'      38.7025   -7.0457   47.1430  C.3   1 MOL        -0.1200 
37   C3'      38.6157   -7.9587   48.4057  C.3   1 MOL        -0.1200 
38   C4'      37.1709   -8.3535   48.8092  C.3   1 MOL        -0.1800 
39   HH31     44.3520  -10.3480   37.4191  H     1 MOL         0.0600 
40   HH32     43.2884   -9.9055   36.0620  H     1 MOL         0.0600 
41   HH33     44.9119   -9.2018   36.1888  H     1 MOL         0.0600 
42   HN       42.0634   -9.6013   38.2771  H     1 MOL         0.3000 
43   HA       42.3081   -6.8157   39.2247  H     1 MOL         0.0600 
44   HB1      39.8356   -7.0605   39.7834  H     1 MOL         0.0600 
45   HB2      39.8151   -8.5441   38.8446  H     1 MOL         0.0600 
46   HD1      38.6073   -8.0563   36.8574  H     1 MOL         0.1150 
47   HD2      41.1892   -5.0662   38.3600  H     1 MOL         0.1150 
48   HE1      37.9124   -6.5622   35.1118  H     1 MOL         0.1150 
49   HE2      40.4984   -3.5894   36.5860  H     1 MOL         0.1150 
50   HO1P     40.2314   -5.8837   32.7062  H     1 MOL         0.3800 
51   HO3P     40.3447   -2.7401   32.1910  H     1 MOL         0.3800 
52   HN       41.9119   -6.5307   41.4103  H     1 MOL         0.3000 
53   HA       41.5245   -8.8103   43.1976  H     1 MOL         0.0600 
54   HB1      43.8518   -8.8259   43.1485  H     1 MOL         0.0600 
55   HB2      43.4324   -7.9277   44.5831  H     1 MOL         0.0600 
56   HG1      45.2031   -6.6609   43.7683  H     1 MOL         0.0600 
57   HG2      43.8374   -5.7638   43.1107  H     1 MOL         0.0600 
58   HD       44.2144   -6.9615   40.8897  H     1 MOL         0.0600 
59   HOE1     46.5883   -5.7533   41.7619  H     1 MOL         0.4180 
60   HOE2     46.5408   -7.8386   42.2478  H     1 MOL         0.4180 
61   H21      39.5720   -8.0160   41.8177  H     1 MOL         0.0600 
62   H22      38.7769   -6.4633   41.6480  H     1 MOL         0.0600 
63   H61      38.6123   -4.9146   43.6605  H     1 MOL         0.0600 
64   H62      39.4289   -5.3194   45.1428  H     1 MOL         0.0600 
65   H31      37.8450   -8.8733   43.2836  H     1 MOL         0.0600 
66   H32      37.0905   -8.1814   41.8415  H     1 MOL         0.0600 
67   H41      35.9087   -7.5422   43.9919  H     1 MOL         0.0600 
68   H42      36.4404   -6.1672   43.0273  H     1 MOL         0.0600 
69   H5       36.9827   -5.6670   45.3067  H     1 MOL         0.0600 
70   H1'1     38.4174   -8.3900   45.4722  H     1 MOL         0.0600 
71   H1'2     36.9231   -7.9225   46.3028  H     1 MOL         0.0600 
72   H2'1     38.3740   -6.0345   47.4304  H     1 MOL         0.0600 
73   H2'2     39.7653   -6.9645   46.8577  H     1 MOL         0.0600 
74   H3'1     39.0748   -7.4196   49.2419  H     1 MOL         0.0600 
75   H3'2     39.2073   -8.8710   48.2330  H     1 MOL         0.0600 
76   H4'1     37.1662   -8.6908   49.8538  H     1 MOL         0.0600 
77   H4'2     36.4934   -7.4970   48.7111  H     1 MOL         0.0600 
78   H4'3     36.8142   -9.1692   48.1605  H     1 MOL         0.0600 
@<TRIPOS>BOND
     1    1    2 2    
     2    1    3 1    
     3    1    4 am   BACKBONE|DICT|INTERRES
     4    3   39 1    
     5    3   40 1    
     6    3   41 1    
     7    4    5 1    
     8    4   42 1    
     9    5    8 1    
    10    5    6 1    
    11    5   43 1    
    12    6    7 2    
    13    6   20 am   BACKBONE|DICT|INTERRES
    14    8    9 1    
    15    8   44 1    
    16    8   45 1    
    17    9   11 ar   
    18    9   10 ar   
    19   10   12 ar   
    20   10   46 1    
    21   11   13 ar   
    22   11   47 1    
    23   12   14 ar   
    24   12   48 1    
    25   13   14 ar   
    26   13   49 1    
    27   14   15 1    
    28   15   16 1    
    29   16   19 1    
    30   16   18 2    
    31   16   17 1    
    32   17   50 1    
    33   19   51 1    
    34   20   21 1    
    35   20   52 1    
    36   21   22 1    
    37   21   24 1    
    38   21   53 1    
    39   22   23 2    
    40   22   29 am   BACKBONE|DICT|INTERRES
    41   24   25 1    
    42   24   54 1    
    43   24   55 1    
    44   25   26 1    
    45   25   56 1    
    46   25   57 1    
    47   26   27 1    
    48   26   28 1    
    49   26   58 1    
    50   27   59 1    
    51   28   60 1    
    52   29   31 1    
    53   29   30 1    
    54   30   32 1    
    55   30   61 1    
    56   30   62 1    
    57   31   34 1    
    58   31   63 1    
    59   31   64 1    
    60   32   33 1    
    61   32   65 1    
    62   32   66 1    
    63   33   34 1    
    64   33   67 1    
    65   33   68 1    
    66   34   35 1    
    67   34   69 1    
    68   35   36 1    
    69   35   70 1    
    70   35   71 1    
    71   36   37 1    
    72   36   72 1    
    73   36   73 1    
    74   37   38 1    
    75   37   74 1    
    76   37   75 1    
    77   38   76 1    
    78   38   77 1    
    79   38   78 1    
@<TRIPOS>SUBSTRUCTURE
     1 MOL         1 GROUP             0       ****    0 ROOT    
@<TRIPOS>PROPERTY_DATA
  Total_Score	| 7.5616
  Crash		| -1.8593
  Polar		| 7.3916

