@<TRIPOS>MOLECULE
1_0015
78   79    1
SMALL
USER_CHARGES


@<TRIPOS>ATOM
1    C        43.4843   -8.6081   37.4801  C.2   1 MOL         0.5000 
2    O        44.1037   -7.5546   37.4226  O.2   1 MOL        -0.5000 
3    CH3      43.9139   -9.7175   36.6584  C.3   1 MOL        -0.1800 
4    N        42.4547   -8.7795   38.3017  N.am  1 MOL        -0.5000 
5    CA       41.9388   -7.8335   39.2600  C.3   1 MOL         0.1400 
6    C        42.1369   -8.2951   40.6310  C.2   1 MOL         0.5000 
7    O        42.2005   -9.4887   40.8932  O.2   1 MOL        -0.5000 
8    CB       40.4210   -7.5726   39.0217  C.3   1 MOL        -0.0050 
9    CG       40.0887   -6.7623   37.8139  C.ar  1 MOL        -0.1150 
10   CD1      39.1714   -7.2356   36.8448  C.ar  1 MOL        -0.1150 
11   CD2      40.5766   -5.4359   37.6841  C.ar  1 MOL        -0.1150 
12   CE1      38.7279   -6.4018   35.8015  C.ar  1 MOL        -0.1150 
13   CE2      40.1217   -4.6006   36.6420  C.ar  1 MOL        -0.1150 
14   CZ       39.2161   -5.0893   35.6770  C.ar  1 MOL         0.1000 
15   OH       38.6826   -4.2837   34.7235  O.3   1 MOL        -0.2882 
16   P        39.4102   -4.3458   33.3538  P.3   1 MOL         1.2307 
17   O1P      39.9128   -5.7496   32.9312  O.3   1 MOL        -0.5682 
18   O2P      38.4436   -3.8981   32.3816  O.2   1 MOL        -0.6661 
19   O3P      40.5754   -3.3429   33.3132  O.3   1 MOL        -0.5682 
20   N        42.1236   -7.3740   41.5852  N.am  1 MOL        -0.5000 
21   CA       42.2121   -7.5754   43.0025  C.3   1 MOL         0.1400 
22   C        40.9110   -8.0513   43.5102  C.2   1 MOL         0.5000 
23   O        39.9979   -7.2367   43.3764  O.2   1 MOL        -0.5000 
24   CB       42.6536   -6.2296   43.6678  C.3   1 MOL        -0.1200 
25   CG       44.0296   -5.6877   43.1690  C.3   1 MOL        -0.1200 
26   CD       45.2742   -6.1354   43.9980  C.3   1 MOL         0.4700 
27   OE1      45.0815   -7.3582   44.7337  O.3   1 MOL        -0.6830 
28   OE2      46.4087   -6.3029   43.1352  O.3   1 MOL        -0.6830 
29   N1       40.6488   -9.2333   44.1227  N.am  1 MOL        -0.1400 
30   C2       41.5725  -10.3514   44.2431  C.3   1 MOL        -0.0500 
31   C6       39.3729   -9.4655   44.8125  C.3   1 MOL        -0.0500 
32   C3       41.9640  -10.5285   45.7299  C.3   1 MOL        -0.1200 
33   C4       40.6982  -10.7304   46.6013  C.3   1 MOL        -0.1200 
34   C5       39.6106   -9.6324   46.3527  C.3   1 MOL        -0.0600 
35   C1'      39.8847   -8.2363   47.0076  C.3   1 MOL        -0.1200 
36   C2'      40.4383   -8.2402   48.4610  C.3   1 MOL        -0.1200 
37   C3'      39.9026   -7.0491   49.3186  C.3   1 MOL        -0.1200 
38   C4'      40.8836   -6.5903   50.4330  C.3   1 MOL        -0.1800 
39   HH31     44.1846  -10.5609   37.2979  H     1 MOL         0.0600 
40   HH32     43.1014  -10.0193   35.9943  H     1 MOL         0.0600 
41   HH33     44.7829   -9.4550   36.0469  H     1 MOL         0.0600 
42   HN       42.0397   -9.6593   38.2875  H     1 MOL         0.3000 
43   HA       42.4730   -6.8781   39.1515  H     1 MOL         0.0600 
44   HB1      39.9994   -7.0237   39.8678  H     1 MOL         0.0600 
45   HB2      39.9031   -8.5366   38.9895  H     1 MOL         0.0600 
46   HD1      38.7891   -8.1875   36.9215  H     1 MOL         0.1150 
47   HD2      41.2150   -5.0477   38.3908  H     1 MOL         0.1150 
48   HE1      38.0260   -6.7535   35.1515  H     1 MOL         0.1150 
49   HE2      40.4636   -3.6369   36.5858  H     1 MOL         0.1150 
50   HO1P     39.2678   -6.0637   32.2482  H     1 MOL         0.3800 
51   HO3P     40.5016   -2.9235   32.4282  H     1 MOL         0.3800 
52   HN       42.0619   -6.4509   41.2903  H     1 MOL         0.3000 
53   HA       43.0223   -8.2749   43.1937  H     1 MOL         0.0600 
54   HB1      42.6843   -6.3556   44.7615  H     1 MOL         0.0600 
55   HB2      41.8880   -5.4710   43.4571  H     1 MOL         0.0600 
56   HG1      43.9943   -4.5964   43.1850  H     1 MOL         0.0600 
57   HG2      44.1693   -5.9787   42.1263  H     1 MOL         0.0600 
58   HD       45.5196   -5.3419   44.7240  H     1 MOL         0.0600 
59   HOE1     45.9925   -7.5982   45.0306  H     1 MOL         0.4180 
60   HOE2     46.2781   -7.1893   42.7367  H     1 MOL         0.4180 
61   H21      42.4717  -10.2544   43.6432  H     1 MOL         0.0600 
62   H22      41.0762  -11.2607   43.8789  H     1 MOL         0.0600 
63   H61      38.9051  -10.3803   44.4331  H     1 MOL         0.0600 
64   H62      38.6202   -8.6780   44.6728  H     1 MOL         0.0600 
65   H31      42.5090   -9.6429   46.0655  H     1 MOL         0.0600 
66   H32      42.6181  -11.3952   45.8220  H     1 MOL         0.0600 
67   H41      40.9937  -10.7725   47.6556  H     1 MOL         0.0600 
68   H42      40.2634  -11.7051   46.3452  H     1 MOL         0.0600 
69   H5       38.6842  -10.0043   46.8102  H     1 MOL         0.0600 
70   H1'1     38.9353   -7.6869   47.0035  H     1 MOL         0.0600 
71   H1'2     40.5906   -7.6671   46.3972  H     1 MOL         0.0600 
72   H2'1     41.5303   -8.1988   48.4231  H     1 MOL         0.0600 
73   H2'2     40.1542   -9.1607   48.9766  H     1 MOL         0.0600 
74   H3'1     38.9650   -7.3572   49.8011  H     1 MOL         0.0600 
75   H3'2     39.6794   -6.1704   48.6947  H     1 MOL         0.0600 
76   H4'1     40.3646   -5.9022   51.1225  H     1 MOL         0.0600 
77   H4'2     41.2555   -7.4520   51.0088  H     1 MOL         0.0600 
78   H4'3     41.7374   -6.0610   49.9817  H     1 MOL         0.0600 
@<TRIPOS>BOND
     1    1    2 2    
     2    1    3 1    
     3    1    4 am   BACKBONE|DICT|INTERRES
     4    3   39 1    
     5    3   40 1    
     6    3   41 1    
     7    4    5 1    
     8    4   42 1    
     9    5    8 1    
    10    5    6 1    
    11    5   43 1    
    12    6    7 2    
    13    6   20 am   BACKBONE|DICT|INTERRES
    14    8    9 1    
    15    8   44 1    
    16    8   45 1    
    17    9   11 ar   
    18    9   10 ar   
    19   10   12 ar   
    20   10   46 1    
    21   11   13 ar   
    22   11   47 1    
    23   12   14 ar   
    24   12   48 1    
    25   13   14 ar   
    26   13   49 1    
    27   14   15 1    
    28   15   16 1    
    29   16   19 1    
    30   16   18 2    
    31   16   17 1    
    32   17   50 1    
    33   19   51 1    
    34   20   21 1    
    35   20   52 1    
    36   21   22 1    
    37   21   24 1    
    38   21   53 1    
    39   22   23 2    
    40   22   29 am   BACKBONE|DICT|INTERRES
    41   24   25 1    
    42   24   54 1    
    43   24   55 1    
    44   25   26 1    
    45   25   56 1    
    46   25   57 1    
    47   26   27 1    
    48   26   28 1    
    49   26   58 1    
    50   27   59 1    
    51   28   60 1    
    52   29   31 1    
    53   29   30 1    
    54   30   32 1    
    55   30   61 1    
    56   30   62 1    
    57   31   34 1    
    58   31   63 1    
    59   31   64 1    
    60   32   33 1    
    61   32   65 1    
    62   32   66 1    
    63   33   34 1    
    64   33   67 1    
    65   33   68 1    
    66   34   35 1    
    67   34   69 1    
    68   35   36 1    
    69   35   70 1    
    70   35   71 1    
    71   36   37 1    
    72   36   72 1    
    73   36   73 1    
    74   37   38 1    
    75   37   74 1    
    76   37   75 1    
    77   38   76 1    
    78   38   77 1    
    79   38   78 1    
@<TRIPOS>SUBSTRUCTURE
     1 MOL         1 GROUP             0       ****    0 ROOT    
@<TRIPOS>PROPERTY_DATA
  Total_Score	| 7.4993
  Crash		| -1.0975
  Polar		| 6.6829

