@<TRIPOS>MOLECULE
1_0013
78   79    1
SMALL
USER_CHARGES


@<TRIPOS>ATOM
1    C        43.2558   -8.9169   37.0315  C.2   1 MOL         0.5000 
2    O        44.1351   -8.0705   36.9275  O.2   1 MOL        -0.5000 
3    CH3      43.2687  -10.0563   36.1407  C.3   1 MOL        -0.1800 
4    N        42.3074   -8.8581   37.9547  N.am  1 MOL        -0.5000 
5    CA       42.1514   -7.8655   38.9856  C.3   1 MOL         0.1400 
6    C        42.6630   -8.3497   40.2687  C.2   1 MOL         0.5000 
7    O        42.8489   -9.5482   40.4580  O.2   1 MOL        -0.5000 
8    CB       40.6466   -7.4701   39.0992  C.3   1 MOL        -0.0050 
9    CG       40.1408   -6.6888   37.9401  C.ar  1 MOL        -0.1150 
10   CD1      39.2171   -7.2588   37.0319  C.ar  1 MOL        -0.1150 
11   CD2      40.5066   -5.3345   37.7805  C.ar  1 MOL        -0.1150 
12   CE1      38.6827   -6.4971   35.9767  C.ar  1 MOL        -0.1150 
13   CE2      39.9623   -4.5688   36.7377  C.ar  1 MOL        -0.1150 
14   CZ       39.0638   -5.1485   35.8158  C.ar  1 MOL         0.1000 
15   OH       38.4953   -4.4272   34.7992  O.3   1 MOL        -0.2882 
16   P        39.4178   -4.1330   33.5769  P.3   1 MOL         1.2307 
17   O1P      38.5950   -4.2877   32.2894  O.3   1 MOL        -0.5682 
18   O2P      39.7936   -2.7446   33.6116  O.2   1 MOL        -0.6661 
19   O3P      40.7154   -4.9688   33.4854  O.3   1 MOL        -0.5682 
20   N        42.9059   -7.4640   41.2298  N.am  1 MOL        -0.5000 
21   CA       43.3473   -7.7104   42.5747  C.3   1 MOL         0.1400 
22   C        44.6528   -8.4152   42.6111  C.2   1 MOL         0.5000 
23   O        44.7990   -9.2196   43.5249  O.2   1 MOL        -0.5000 
24   CB       42.1977   -8.3812   43.4213  C.3   1 MOL        -0.1200 
25   CG       40.7259   -7.9945   43.0972  C.3   1 MOL        -0.1200 
26   CD       40.2869   -6.5828   43.5587  C.3   1 MOL         0.4700 
27   OE1      39.2017   -6.1101   42.7554  O.3   1 MOL        -0.6830 
28   OE2      39.8564   -6.6148   44.9221  O.3   1 MOL        -0.6830 
29   N1       45.6635   -8.2718   41.7205  N.am  1 MOL        -0.1400 
30   C2       45.7661   -7.1762   40.7657  C.3   1 MOL        -0.0500 
31   C6       46.7190   -9.2719   41.5980  C.3   1 MOL        -0.0500 
32   C3       47.1522   -6.4789   40.8126  C.3   1 MOL        -0.1200 
33   C4       48.3283   -7.4859   40.8003  C.3   1 MOL        -0.1200 
34   C5       48.1302   -8.6525   41.8268  C.3   1 MOL        -0.0600 
35   C1'      48.3624   -8.2343   43.3203  C.3   1 MOL        -0.1200 
36   C2'      49.8205   -8.3818   43.8448  C.3   1 MOL        -0.1200 
37   C3'      50.3162   -9.8278   44.1261  C.3   1 MOL        -0.1200 
38   C4'      49.3504  -10.7171   44.9422  C.3   1 MOL        -0.1800 
39   HH31     43.3504  -10.9834   36.7193  H     1 MOL         0.0600 
40   HH32     42.3431  -10.0764   35.5564  H     1 MOL         0.0600 
41   HH33     44.1135  -10.0170   35.4418  H     1 MOL         0.0600 
42   HN       41.6833   -9.5985   37.9800  H     1 MOL         0.3000 
43   HA       42.7269   -6.9693   38.7273  H     1 MOL         0.0600 
44   HB1      40.4951   -6.8692   40.0015  H     1 MOL         0.0600 
45   HB2      40.0524   -8.3800   39.2233  H     1 MOL         0.0600 
46   HD1      38.9248   -8.2322   37.1348  H     1 MOL         0.1150 
47   HD2      41.1519   -4.8920   38.4438  H     1 MOL         0.1150 
48   HE1      38.0057   -6.9230   35.3385  H     1 MOL         0.1150 
49   HE2      40.2211   -3.5828   36.6552  H     1 MOL         0.1150 
50   HO1P     38.7761   -5.1946   31.9775  H     1 MOL         0.3800 
51   HO3P     40.5543   -5.6105   32.7470  H     1 MOL         0.3800 
52   HN       42.7498   -6.5329   41.0014  H     1 MOL         0.3000 
53   HA       43.5300   -6.7265   43.0179  H     1 MOL         0.0600 
54   HB1      42.3782   -8.1978   44.4880  H     1 MOL         0.0600 
55   HB2      42.2576   -9.4610   43.2700  H     1 MOL         0.0600 
56   HG1      40.0632   -8.7406   43.5487  H     1 MOL         0.0600 
57   HG2      40.5804   -8.0738   42.0222  H     1 MOL         0.0600 
58   HD       41.1189   -5.8776   43.4675  H     1 MOL         0.0600 
59   HOE1     38.5033   -6.8039   42.8045  H     1 MOL         0.4180 
60   HOE2     39.0111   -7.1360   44.9191  H     1 MOL         0.4180 
61   H21      45.0195   -6.3977   40.9269  H     1 MOL         0.0600 
62   H22      45.6074   -7.5661   39.7557  H     1 MOL         0.0600 
63   H61      46.6760   -9.6900   40.5909  H     1 MOL         0.0600 
64   H62      46.6094  -10.1299   42.2688  H     1 MOL         0.0600 
65   H31      47.2177   -5.8550   41.7055  H     1 MOL         0.0600 
66   H32      47.2534   -5.8189   39.9504  H     1 MOL         0.0600 
67   H41      49.2640   -6.9511   40.9951  H     1 MOL         0.0600 
68   H42      48.4117   -7.9184   39.7999  H     1 MOL         0.0600 
69   H5       48.8480   -9.4416   41.5786  H     1 MOL         0.0600 
70   H1'1     47.7097   -8.8110   43.9730  H     1 MOL         0.0600 
71   H1'2     48.0675   -7.1907   43.4492  H     1 MOL         0.0600 
72   H2'1     49.9008   -7.8163   44.7712  H     1 MOL         0.0600 
73   H2'2     50.5065   -7.9196   43.1291  H     1 MOL         0.0600 
74   H3'1     51.2555   -9.7573   44.6831  H     1 MOL         0.0600 
75   H3'2     50.5504  -10.3342   43.1760  H     1 MOL         0.0600 
76   H4'1     49.8502  -11.6390   45.2261  H     1 MOL         0.0600 
77   H4'2     49.0226  -10.1980   45.8408  H     1 MOL         0.0600 
78   H4'3     48.4777  -10.9789   44.3339  H     1 MOL         0.0600 
@<TRIPOS>BOND
     1    1    2 2    
     2    1    3 1    
     3    1    4 am   BACKBONE|DICT|INTERRES
     4    3   39 1    
     5    3   40 1    
     6    3   41 1    
     7    4    5 1    
     8    4   42 1    
     9    5    8 1    
    10    5    6 1    
    11    5   43 1    
    12    6    7 2    
    13    6   20 am   BACKBONE|DICT|INTERRES
    14    8    9 1    
    15    8   44 1    
    16    8   45 1    
    17    9   11 ar   
    18    9   10 ar   
    19   10   12 ar   
    20   10   46 1    
    21   11   13 ar   
    22   11   47 1    
    23   12   14 ar   
    24   12   48 1    
    25   13   14 ar   
    26   13   49 1    
    27   14   15 1    
    28   15   16 1    
    29   16   19 1    
    30   16   18 2    
    31   16   17 1    
    32   17   50 1    
    33   19   51 1    
    34   20   21 1    
    35   20   52 1    
    36   21   22 1    
    37   21   24 1    
    38   21   53 1    
    39   22   23 2    
    40   22   29 am   BACKBONE|DICT|INTERRES
    41   24   25 1    
    42   24   54 1    
    43   24   55 1    
    44   25   26 1    
    45   25   56 1    
    46   25   57 1    
    47   26   27 1    
    48   26   28 1    
    49   26   58 1    
    50   27   59 1    
    51   28   60 1    
    52   29   31 1    
    53   29   30 1    
    54   30   32 1    
    55   30   61 1    
    56   30   62 1    
    57   31   34 1    
    58   31   63 1    
    59   31   64 1    
    60   32   33 1    
    61   32   65 1    
    62   32   66 1    
    63   33   34 1    
    64   33   67 1    
    65   33   68 1    
    66   34   35 1    
    67   34   69 1    
    68   35   36 1    
    69   35   70 1    
    70   35   71 1    
    71   36   37 1    
    72   36   72 1    
    73   36   73 1    
    74   37   38 1    
    75   37   74 1    
    76   37   75 1    
    77   38   76 1    
    78   38   77 1    
    79   38   78 1    
@<TRIPOS>SUBSTRUCTURE
     1 MOL         1 GROUP             0       ****    0 ROOT    
@<TRIPOS>PROPERTY_DATA
  Total_Score	| 7.5373
  Crash		| -1.0899
  Polar		| 8.1529

