@<TRIPOS>MOLECULE
1_0002
78   79    1
SMALL
USER_CHARGES


@<TRIPOS>ATOM
1    C        43.8483   -8.6227   37.6671  C.2   1 MOL         0.5000 
2    O        44.0059   -7.4479   37.3594  O.2   1 MOL        -0.5000 
3    CH3      44.8020   -9.6029   37.2037  C.3   1 MOL        -0.1800 
4    N        42.8506   -9.0216   38.4463  N.am  1 MOL        -0.5000 
5    CA       41.8364   -8.2105   39.0689  C.3   1 MOL         0.1400 
6    C        41.8890   -8.4254   40.5107  C.2   1 MOL         0.5000 
7    O        41.7308   -9.5578   40.9551  O.2   1 MOL        -0.5000 
8    CB       40.4162   -8.5496   38.4920  C.3   1 MOL        -0.0050 
9    CG       39.9062   -7.5403   37.5245  C.ar  1 MOL        -0.1150 
10   CD1      39.5759   -7.8760   36.1907  C.ar  1 MOL        -0.1150 
11   CD2      39.6866   -6.2126   37.9636  C.ar  1 MOL        -0.1150 
12   CE1      39.0432   -6.9059   35.3191  C.ar  1 MOL        -0.1150 
13   CE2      39.1707   -5.2408   37.0902  C.ar  1 MOL        -0.1150 
14   CZ       38.8656   -5.5746   35.7564  C.ar  1 MOL         0.1000 
15   OH       38.3381   -4.6073   34.9448  O.3   1 MOL        -0.2882 
16   P        39.2795   -4.0728   33.8258  P.3   1 MOL         1.2307 
17   O1P      39.2196   -2.5353   33.8314  O.3   1 MOL        -0.5682 
18   O2P      40.6543   -4.5106   33.8556  O.2   1 MOL        -0.6661 
19   O3P      38.6491   -4.4894   32.4865  O.3   1 MOL        -0.5682 
20   N        42.0480   -7.3903   41.3297  N.am  1 MOL        -0.5000 
21   CA       42.0603   -7.4196   42.7673  C.3   1 MOL         0.1400 
22   C        40.6970   -7.5334   43.3200  C.2   1 MOL         0.5000 
23   O        39.9057   -6.7375   42.8220  O.2   1 MOL        -0.5000 
24   CB       42.7340   -6.1256   43.3254  C.3   1 MOL        -0.1200 
25   CG       44.1467   -5.7849   42.7649  C.3   1 MOL        -0.1200 
26   CD       45.3491   -6.3372   43.5711  C.3   1 MOL         0.4700 
27   OE1      45.3741   -5.7795   44.8826  O.3   1 MOL        -0.6830 
28   OE2      45.3416   -7.7577   43.6626  O.3   1 MOL        -0.6830 
29   N1       40.2753   -8.2924   44.3586  N.am  1 MOL        -0.1400 
30   C2       41.0934   -9.2664   45.0706  C.3   1 MOL        -0.0500 
31   C6       38.9110   -8.2005   44.8838  C.3   1 MOL        -0.0500 
32   C3       41.1902   -8.9350   46.5870  C.3   1 MOL        -0.1200 
33   C4       39.7872   -8.6786   47.2020  C.3   1 MOL        -0.1200 
34   C5       38.8965   -7.6997   46.3681  C.3   1 MOL        -0.0600 
35   C1'      39.1171   -6.1360   46.4893  C.3   1 MOL        -0.1200 
36   C2'      40.2924   -5.5560   47.3295  C.3   1 MOL        -0.1200 
37   C3'      40.1746   -5.7561   48.8714  C.3   1 MOL        -0.1200 
38   C4'      41.4779   -6.2476   49.5359  C.3   1 MOL        -0.1800 
39   HH31     45.2915  -10.0734   38.0583  H     1 MOL         0.0600 
40   HH32     44.2891  -10.3705   36.6218  H     1 MOL         0.0600 
41   HH33     45.5715   -9.1502   36.5739  H     1 MOL         0.0600 
42   HN       42.8081   -9.9741   38.6306  H     1 MOL         0.3000 
43   HA       42.0509   -7.1522   38.8765  H     1 MOL         0.0600 
44   HB1      39.6753   -8.6007   39.2966  H     1 MOL         0.0600 
45   HB2      40.4351   -9.5477   38.0429  H     1 MOL         0.0600 
46   HD1      39.7120   -8.8302   35.8454  H     1 MOL         0.1150 
47   HD2      39.8951   -5.9447   38.9282  H     1 MOL         0.1150 
48   HE1      38.7946   -7.1635   34.3612  H     1 MOL         0.1150 
49   HE2      39.0149   -4.2868   37.4293  H     1 MOL         0.1150 
50   HO1P     39.1388   -2.2831   34.7799  H     1 MOL         0.3800 
51   HO3P     39.1353   -5.3001   32.2218  H     1 MOL         0.3800 
52   HN       42.1757   -6.5242   40.9165  H     1 MOL         0.3000 
53   HA       42.6903   -8.2622   43.0362  H     1 MOL         0.0600 
54   HB1      42.7899   -6.1951   44.4154  H     1 MOL         0.0600 
55   HB2      42.0793   -5.2827   43.0945  H     1 MOL         0.0600 
56   HG1      44.2471   -4.6957   42.7402  H     1 MOL         0.0600 
57   HG2      44.2346   -6.1298   41.7331  H     1 MOL         0.0600 
58   HD       46.2710   -6.0454   43.0621  H     1 MOL         0.0600 
59   HOE1     46.0700   -6.2779   45.3618  H     1 MOL         0.4180 
60   HOE2     44.7413   -7.9635   44.4070  H     1 MOL         0.4180 
61   H21      42.1166   -9.3609   44.7171  H     1 MOL         0.0600 
62   H22      40.6407  -10.2601   44.9499  H     1 MOL         0.0600 
63   H61      38.4577   -9.1981   44.8361  H     1 MOL         0.0600 
64   H62      38.2451   -7.5602   44.2957  H     1 MOL         0.0600 
65   H31      41.8216   -8.0496   46.7168  H     1 MOL         0.0600 
66   H32      41.6614   -9.7779   47.1110  H     1 MOL         0.0600 
67   H41      39.8905   -8.3426   48.2337  H     1 MOL         0.0600 
68   H42      39.2721   -9.6462   47.2478  H     1 MOL         0.0600 
69   H5       37.8744   -7.8719   46.7243  H     1 MOL         0.0600 
70   H1'1     38.1960   -5.6873   46.8848  H     1 MOL         0.0600 
71   H1'2     39.2355   -5.7152   45.4844  H     1 MOL         0.0600 
72   H2'1     40.3214   -4.4704   47.1505  H     1 MOL         0.0600 
73   H2'2     41.2345   -5.9633   46.9450  H     1 MOL         0.0600 
74   H3'1     39.3868   -6.4779   49.1016  H     1 MOL         0.0600 
75   H3'2     39.8909   -4.8033   49.3402  H     1 MOL         0.0600 
76   H4'1     41.3176   -6.3966   50.6045  H     1 MOL         0.0600 
77   H4'2     41.7889   -7.2019   49.1056  H     1 MOL         0.0600 
78   H4'3     42.2795   -5.5201   49.3914  H     1 MOL         0.0600 
@<TRIPOS>BOND
     1    1    2 2    
     2    1    3 1    
     3    1    4 am   BACKBONE|DICT|INTERRES
     4    3   39 1    
     5    3   40 1    
     6    3   41 1    
     7    4    5 1    
     8    4   42 1    
     9    5    8 1    
    10    5    6 1    
    11    5   43 1    
    12    6    7 2    
    13    6   20 am   BACKBONE|DICT|INTERRES
    14    8    9 1    
    15    8   44 1    
    16    8   45 1    
    17    9   11 ar   
    18    9   10 ar   
    19   10   12 ar   
    20   10   46 1    
    21   11   13 ar   
    22   11   47 1    
    23   12   14 ar   
    24   12   48 1    
    25   13   14 ar   
    26   13   49 1    
    27   14   15 1    
    28   15   16 1    
    29   16   19 1    
    30   16   18 2    
    31   16   17 1    
    32   17   50 1    
    33   19   51 1    
    34   20   21 1    
    35   20   52 1    
    36   21   22 1    
    37   21   24 1    
    38   21   53 1    
    39   22   23 2    
    40   22   29 am   BACKBONE|DICT|INTERRES
    41   24   25 1    
    42   24   54 1    
    43   24   55 1    
    44   25   26 1    
    45   25   56 1    
    46   25   57 1    
    47   26   27 1    
    48   26   28 1    
    49   26   58 1    
    50   27   59 1    
    51   28   60 1    
    52   29   31 1    
    53   29   30 1    
    54   30   32 1    
    55   30   61 1    
    56   30   62 1    
    57   31   34 1    
    58   31   63 1    
    59   31   64 1    
    60   32   33 1    
    61   32   65 1    
    62   32   66 1    
    63   33   34 1    
    64   33   67 1    
    65   33   68 1    
    66   34   35 1    
    67   34   69 1    
    68   35   36 1    
    69   35   70 1    
    70   35   71 1    
    71   36   37 1    
    72   36   72 1    
    73   36   73 1    
    74   37   38 1    
    75   37   74 1    
    76   37   75 1    
    77   38   76 1    
    78   38   77 1    
    79   38   78 1    
@<TRIPOS>SUBSTRUCTURE
     1 MOL         1 GROUP             0       ****    0 ROOT    
@<TRIPOS>PROPERTY_DATA
  Total_Score	| 8.4496
  Crash		| -1.6605
  Polar		| 7.1466

